<?xml version="1.0" ?>
<routes xmlns:xsi="http://www.w3.org/2001/XMLSchema-instance" xsi:noNamespaceSchemaLocation="http://sumo.dlr.de/xsd/routes_file.xsd">
   <vType id="veh1" laneChangeModel="LC2013" lcCooperative="5.0" lcKeepRight="3.0" lcSpeedGain="5.0" lcStrategic="10.0" length="4.00" maxSpeed="55.00" minGap="1.50" vClass="passenger"/>
   <vehicle depart="0.00" id="4422" type="veh1">
      <route edges="KL_C1 KL_C2 KL_E2 YB_A2 YB_A1 YB_C1 YB_F"/>
   </vehicle>
   <vehicle depart="0.00" id="12037" type="veh1">
      <route edges="KC_A1 KC_B"/>
   </vehicle>
   <vehicle depart="2.00" id="4489" type="veh1">
      <route edges="KL_E1 KL_E2 KL_G2 GH_C GH_C2 GH_H1 GH_H2"/>
   </vehicle>
   <vehicle depart="2.00" id="8733" type="veh1">
      <route edges="YB_G KL_G1"/>
   </vehicle>
   <vehicle depart="2.00" id="12056" type="veh1">
      <route edges="KC_A1 KC_A2 YB_E1 YB_E2 KL_G1 KL_G2 KL_C2 KL_D"/>
   </vehicle>
   <vehicle depart="4.00" id="8680" type="veh1">
      <route edges="YB_A2 YB_A1 YB_C1 YB_F"/>
   </vehicle>
   <vehicle depart="5.00" id="8711" type="veh1">
      <route edges="YB_E1 YB_E2 KL_G1"/>
   </vehicle>
   <vehicle depart="6.00" id="12102" type="veh1">
      <route edges="KC_E1 KC_E2 KC_G1 KC_B"/>
   </vehicle>
   <vehicle depart="7.00" id="25" type="veh1">
      <route edges="GH_A1 GH_B1 KL_C1 KL_C2 KL_D"/>
   </vehicle>
   <vehicle depart="7.00" id="12057" type="veh1">
      <route edges="KC_A1 KC_A2 YB_E1 YB_E2 KL_G1"/>
   </vehicle>
   <vehicle depart="8.00" id="8677" type="veh1">
      <route edges="YB_A2 YB_A1 YB_C1 YB_F"/>
   </vehicle>
   <vehicle depart="9.00" id="4396" type="veh1">
      <route edges="KL_C1 KL_C2 KL_D"/>
   </vehicle>
   <vehicle depart="9.00" id="4405" type="veh1">
      <route edges="KL_C1 KL_C2 KL_D"/>
   </vehicle>
   <vehicle depart="10.00" id="8715" type="veh1">
      <route edges="YB_E1 YB_E2 KL_G1"/>
   </vehicle>
   <vehicle depart="11.00" id="4456" type="veh1">
      <route edges="KL_E1 KL_E2 YB_A2 YB_A1 KC_E1 KC_E2 KC_H"/>
   </vehicle>
   <vehicle depart="12.00" id="4482" type="veh1">
      <route edges="KL_E1 KL_E2 KL_G2 GH_C GH_C2 GH_F"/>
   </vehicle>
   <vehicle depart="13.00" id="12052" type="veh1">
      <route edges="KC_A1 KC_A2 YB_E1 YB_E2 KL_G1"/>
   </vehicle>
   <vehicle depart="15.00" id="39" type="veh1">
      <route edges="GH_A1 GH_A2 GH_C2 GH_F"/>
   </vehicle>
   <vehicle depart="16.00" id="110" type="veh1">
      <route edges="GH_G GH_G2 GH_G3 GH_B2 KL_C1"/>
   </vehicle>
   <vehicle depart="16.00" id="4433" type="veh1">
      <route edges="KL_C1 KL_C2 KL_E2 YB_A2"/>
   </vehicle>
   <vehicle depart="17.00" id="12044" type="veh1">
      <route edges="KC_A1 KC_A2 YB_E1"/>
   </vehicle>
   <vehicle depart="19.00" id="8682" type="veh1">
      <route edges="YB_C KC_E1"/>
   </vehicle>
   <vehicle depart="20.00" id="4491" type="veh1">
      <route edges="KL_E1 KL_E2 KL_G2 GH_C"/>
   </vehicle>
   <vehicle depart="20.00" id="12077" type="veh1">
      <route edges="KC_A1 KC_A2 KC_C1 KC_F"/>
   </vehicle>
   <vehicle depart="21.00" id="4476" type="veh1">
      <route edges="KL_E1 KL_E2 YB_A2"/>
   </vehicle>
   <vehicle depart="22.00" id="12065" type="veh1">
      <route edges="KC_A1 KC_A2 YB_E1 YB_E2 KL_G1 KL_G2 GH_C GH_C2 GH_H1 GH_H2"/>
   </vehicle>
   <vehicle depart="23.00" id="113" type="veh1">
      <route edges="GH_G GH_G2 GH_G3 GH_B2 KL_C1"/>
   </vehicle>
   <vehicle depart="25.00" id="12070" type="veh1">
      <route edges="KC_A1 KC_A2 YB_E1 YB_E2 KL_G1 KL_G2 GH_C"/>
   </vehicle>
   <vehicle depart="30.00" id="4514" type="veh1">
      <route edges="KL_G1 KL_G2 GH_C"/>
   </vehicle>
   <vehicle depart="30.00" id="8692" type="veh1">
      <route edges="YB_C YB_C1 YB_E2 KL_G1 KL_G2 GH_C GH_C2 GH_F"/>
   </vehicle>
   <vehicle depart="35.00" id="4513" type="veh1">
      <route edges="KL_G1 KL_G2 GH_C GH_C2 GH_F"/>
   </vehicle>
   <vehicle depart="35.00" id="12031" type="veh1">
      <route edges="KC_A1 KC_B"/>
   </vehicle>
   <vehicle depart="36.00" id="112" type="veh1">
      <route edges="GH_G GH_G2 GH_G3 GH_B2 KL_C1 KL_C2 KL_E2 YB_A2 YB_A1 KC_E1 KC_E2 KC_H"/>
   </vehicle>
   <vehicle depart="36.00" id="8699" type="veh1">
      <route edges="YB_C YB_C1 YB_E2 YB_G1 YB_B"/>
   </vehicle>
   <vehicle depart="36.00" id="12039" type="veh1">
      <route edges="KC_A1 KC_A2 YB_E1 YB_E2 KL_G1"/>
   </vehicle>
   <vehicle depart="36.00" id="12091" type="veh1">
      <route edges="KC_E1 KC_E2 KC_H"/>
   </vehicle>
   <vehicle depart="37.00" id="8670" type="veh1">
      <route edges="YB_A2 YB_A1 KC_E1 KC_E2 KC_G1 KC_B"/>
   </vehicle>
   <vehicle depart="39.00" id="4527" type="veh1">
      <route edges="KL_G1 KL_G2 KL_C2 KL_D"/>
   </vehicle>
   <vehicle depart="39.00" id="8684" type="veh1">
      <route edges="YB_C YB_C1 YB_F"/>
   </vehicle>
   <vehicle depart="39.00" id="12064" type="veh1">
      <route edges="KC_A1 KC_A2 YB_E1"/>
   </vehicle>
   <vehicle depart="41.00" id="8721" type="veh1">
      <route edges="YB_E1 YB_E2 KL_G1"/>
   </vehicle>
   <vehicle depart="42.00" id="102" type="veh1">
      <route edges="GH_E GH_G3 GH_B2 KL_C1 KL_C2 KL_D"/>
   </vehicle>
   <vehicle depart="42.00" id="120" type="veh1">
      <route edges="GH_G GH_G2 GH_G3 GH_B2 KL_C1 KL_C2 KL_E2 YB_A2"/>
   </vehicle>
   <vehicle depart="45.00" id="128" type="veh1">
      <route edges="GH_G GH_G2 GH_G3 GH_B2 KL_C1 KL_C2 KL_E2 YB_A2 YB_A1 KC_E1"/>
   </vehicle>
   <vehicle depart="46.00" id="8691" type="veh1">
      <route edges="YB_C YB_C1 YB_E2 KL_G1"/>
   </vehicle>
   <vehicle depart="48.00" id="12069" type="veh1">
      <route edges="KC_A1 KC_A2 YB_E1"/>
   </vehicle>
   <vehicle depart="53.00" id="95" type="veh1">
      <route edges="GH_C GH_C2 GH_H1 GH_H2"/>
   </vehicle>
   <vehicle depart="53.00" id="4468" type="veh1">
      <route edges="KL_E1 KL_E2 YB_A2 YB_A1 KC_E1"/>
   </vehicle>
   <vehicle depart="54.00" id="4443" type="veh1">
      <route edges="KL_E1 KL_E2 YB_A2 YB_A1 KC_E1"/>
   </vehicle>
   <vehicle depart="55.00" id="109" type="veh1">
      <route edges="GH_G GH_G2 GH_G3 GH_B2 KL_C1 KL_C2 KL_D"/>
   </vehicle>
   <vehicle depart="56.00" id="4480" type="veh1">
      <route edges="KL_E1 KL_E2 KL_G2 GH_C GH_C2 GH_H1 GH_H2"/>
   </vehicle>
   <vehicle depart="57.00" id="84" type="veh1">
      <route edges="GH_C GH_C2 GH_H1 GH_H2"/>
   </vehicle>
   <vehicle depart="58.00" id="8666" type="veh1">
      <route edges="YB_A2 YB_A1 KC_E1"/>
   </vehicle>
   <vehicle depart="59.00" id="4517" type="veh1">
      <route edges="KL_G1 KL_G2 GH_C"/>
   </vehicle>
   <vehicle depart="61.00" id="8737" type="veh1">
      <route edges="YB_G YB_G1 YB_A1 KC_E1"/>
   </vehicle>
   <vehicle depart="62.00" id="12075" type="veh1">
      <route edges="KC_A1 KC_A2 YB_E1 YB_E2 YB_G1 YB_B"/>
   </vehicle>
   <vehicle depart="63.00" id="8716" type="veh1">
      <route edges="YB_E1 YB_E2 KL_G1 KL_G2 KL_C2 KL_D"/>
   </vehicle>
   <vehicle depart="64.00" id="4464" type="veh1">
      <route edges="KL_E1 KL_E2 YB_A2"/>
   </vehicle>
   <vehicle depart="67.00" id="12051" type="veh1">
      <route edges="KC_A1 KC_A2 YB_E1"/>
   </vehicle>
   <vehicle depart="68.00" id="15" type="veh1">
      <route edges="GH_A1 GH_B1 KL_C1"/>
   </vehicle>
   <vehicle depart="68.00" id="4402" type="veh1">
      <route edges="KL_C1 KL_C2 KL_D"/>
   </vehicle>
   <vehicle depart="68.00" id="4473" type="veh1">
      <route edges="KL_E1 KL_E2 YB_A2"/>
   </vehicle>
   <vehicle depart="68.00" id="12045" type="veh1">
      <route edges="KC_A1 KC_A2 YB_E1"/>
   </vehicle>
   <vehicle depart="70.00" id="9" type="veh1">
      <route edges="GH_A1 GH_B1 KL_C1"/>
   </vehicle>
   <vehicle depart="70.00" id="12072" type="veh1">
      <route edges="KC_A1 KC_A2 YB_E1"/>
   </vehicle>
   <vehicle depart="71.00" id="50" type="veh1">
      <route edges="GH_C GH_C2 GH_F"/>
   </vehicle>
   <vehicle depart="71.00" id="8693" type="veh1">
      <route edges="YB_C YB_C1 YB_E2 KL_G1"/>
   </vehicle>
   <vehicle depart="74.00" id="8735" type="veh1">
      <route edges="YB_G KL_G1 KL_G2 GH_C GH_C2 GH_F"/>
   </vehicle>
   <vehicle depart="75.00" id="124" type="veh1">
      <route edges="GH_G GH_G2 GH_G3 GH_B2 KL_C1"/>
   </vehicle>
   <vehicle depart="75.00" id="8697" type="veh1">
      <route edges="YB_C YB_C1 YB_E2 KL_G1 KL_G2 KL_C2 KL_D"/>
   </vehicle>
   <vehicle depart="76.00" id="73" type="veh1">
      <route edges="GH_C GH_C2 GH_F"/>
   </vehicle>
   <vehicle depart="76.00" id="4439" type="veh1">
      <route edges="KL_E1 KL_E2 YB_A2 YB_A1 YB_C1 YB_F"/>
   </vehicle>
   <vehicle depart="77.00" id="125" type="veh1">
      <route edges="GH_G GH_G2 GH_G3 GH_B2 KL_C1 KL_C2 KL_E2 YB_A2"/>
   </vehicle>
   <vehicle depart="77.00" id="12032" type="veh1">
      <route edges="KC_A1 KC_B"/>
   </vehicle>
   <vehicle depart="78.00" id="54" type="veh1">
      <route edges="GH_C GH_C2 GH_F"/>
   </vehicle>
   <vehicle depart="78.00" id="98" type="veh1">
      <route edges="GH_E GH_H1 GH_H2"/>
   </vehicle>
   <vehicle depart="79.00" id="99" type="veh1">
      <route edges="GH_E GH_H1 GH_H2"/>
   </vehicle>
   <vehicle depart="82.00" id="29" type="veh1">
      <route edges="GH_A1 GH_B1 KL_C1 KL_C2 KL_E2 YB_A2"/>
   </vehicle>
   <vehicle depart="82.00" id="34" type="veh1">
      <route edges="GH_A1 GH_A2 GH_C2 GH_F"/>
   </vehicle>
   <vehicle depart="85.00" id="4438" type="veh1">
      <route edges="KL_E1 KL_E2 YB_A2"/>
   </vehicle>
   <vehicle depart="86.00" id="4447" type="veh1">
      <route edges="KL_E1 KL_E2 YB_A2"/>
   </vehicle>
   <vehicle depart="86.00" id="8713" type="veh1">
      <route edges="YB_E1 YB_E2 KL_G1 KL_G2 GH_C GH_C2 GH_H1 GH_H2"/>
   </vehicle>
   <vehicle depart="86.00" id="12073" type="veh1">
      <route edges="KC_A1 KC_A2 YB_E1"/>
   </vehicle>
   <vehicle depart="88.00" id="30" type="veh1">
      <route edges="GH_A1 GH_A2 GH_C2 GH_F"/>
   </vehicle>
   <vehicle depart="91.00" id="8689" type="veh1">
      <route edges="YB_C YB_C1 YB_F"/>
   </vehicle>
   <vehicle depart="91.00" id="12094" type="veh1">
      <route edges="KC_E1 KC_E2 KC_H"/>
   </vehicle>
   <vehicle depart="94.00" id="4508" type="veh1">
      <route edges="KL_G1 KL_G2 GH_C GH_C2 GH_H1 GH_H2"/>
   </vehicle>
   <vehicle depart="94.00" id="4521" type="veh1">
      <route edges="KL_G1 KL_G2 KL_C2 KL_D"/>
   </vehicle>
   <vehicle depart="97.00" id="14" type="veh1">
      <route edges="GH_A1 GH_B1 KL_C1 KL_C2 KL_E2 YB_A2 YB_A1 KC_E1 KC_E2 KC_H"/>
   </vehicle>
   <vehicle depart="97.00" id="4504" type="veh1">
      <route edges="KL_G1 KL_G2 GH_C"/>
   </vehicle>
   <vehicle depart="97.00" id="4518" type="veh1">
      <route edges="KL_G1 KL_G2 GH_C GH_C2 GH_H1 GH_H2"/>
   </vehicle>
   <vehicle depart="99.00" id="45" type="veh1">
      <route edges="GH_A1 GH_A2 GH_C2 GH_H1 GH_H2"/>
   </vehicle>
   <vehicle depart="100.00" id="12068" type="veh1">
      <route edges="KC_A1 KC_A2 YB_E1 YB_E2 KL_G1 KL_G2 GH_C GH_C2 GH_F"/>
   </vehicle>
   <vehicle depart="101.00" id="8673" type="veh1">
      <route edges="YB_A2 YB_A1 KC_E1"/>
   </vehicle>
   <vehicle depart="101.00" id="8731" type="veh1">
      <route edges="YB_E1 YB_E2 YB_G1 YB_B"/>
   </vehicle>
   <vehicle depart="107.00" id="107" type="veh1">
      <route edges="GH_G GH_G2 GH_G3 GH_B2 KL_C1"/>
   </vehicle>
   <vehicle depart="108.00" id="4479" type="veh1">
      <route edges="KL_E1 KL_E2 KL_G2 GH_C"/>
   </vehicle>
   <vehicle depart="111.00" id="8696" type="veh1">
      <route edges="YB_C YB_C1 YB_E2 KL_G1 KL_G2 KL_C2 KL_D"/>
   </vehicle>
   <vehicle depart="113.00" id="4448" type="veh1">
      <route edges="KL_E1 KL_E2 YB_A2"/>
   </vehicle>
   <vehicle depart="114.00" id="8727" type="veh1">
      <route edges="YB_E1 YB_E2 KL_G1"/>
   </vehicle>
   <vehicle depart="116.00" id="4459" type="veh1">
      <route edges="KL_E1 KL_E2 YB_A2"/>
   </vehicle>
   <vehicle depart="116.00" id="12047" type="veh1">
      <route edges="KC_A1 KC_A2 YB_E1"/>
   </vehicle>
   <vehicle depart="116.00" id="12081" type="veh1">
      <route edges="KC_C YB_E1"/>
   </vehicle>
   <vehicle depart="119.00" id="8687" type="veh1">
      <route edges="YB_C YB_C1 YB_F"/>
   </vehicle>
   <vehicle depart="120.00" id="123" type="veh1">
      <route edges="GH_G GH_G2 GH_G3 GH_B2 KL_C1 KL_C2 KL_E2 YB_A2"/>
   </vehicle>
   <vehicle depart="123.00" id="4430" type="veh1">
      <route edges="KL_C1 KL_C2 KL_E2 YB_A2 YB_B"/>
   </vehicle>
   <vehicle depart="124.00" id="4435" type="veh1">
      <route edges="KL_C1 KL_C2 KL_E2 YB_A2 YB_A1 KC_E1"/>
   </vehicle>
   <vehicle depart="125.00" id="4496" type="veh1">
      <route edges="KL_G1 KL_G2 GH_C"/>
   </vehicle>
   <vehicle depart="126.00" id="4417" type="veh1">
      <route edges="KL_C1 KL_C2 KL_E2 YB_A2 YB_A1 KC_E1"/>
   </vehicle>
   <vehicle depart="128.00" id="12043" type="veh1">
      <route edges="KC_A1 KC_A2 YB_E1 YB_E2 KL_G1 KL_G2 GH_C"/>
   </vehicle>
   <vehicle depart="129.00" id="108" type="veh1">
      <route edges="GH_G GH_G2 GH_G3 GH_B2 KL_C1 KL_C2 KL_D"/>
   </vehicle>
   <vehicle depart="129.00" id="118" type="veh1">
      <route edges="GH_G GH_G2 GH_G3 GH_B2 KL_C1 KL_C2 KL_E2 YB_A2"/>
   </vehicle>
   <vehicle depart="129.00" id="4409" type="veh1">
      <route edges="KL_C1 KL_C2 KL_E2 YB_A2 YB_A1 KC_E1"/>
   </vehicle>
   <vehicle depart="131.00" id="106" type="veh1">
      <route edges="GH_G GH_G2 GH_G3 GH_B2 KL_C1 KL_C2 KL_E2 YB_A2 YB_A1 YB_C1 YB_E2 KL_G1"/>
   </vehicle>
   <vehicle depart="133.00" id="4520" type="veh1">
      <route edges="KL_G1 KL_G2 KL_C2 KL_D"/>
   </vehicle>
   <vehicle depart="136.00" id="12076" type="veh1">
      <route edges="KC_A1 KC_A2 KC_C1 KC_F"/>
   </vehicle>
   <vehicle depart="140.00" id="12059" type="veh1">
      <route edges="KC_A1 KC_A2 YB_E1 YB_E2 KL_G1"/>
   </vehicle>
   <vehicle depart="142.00" id="4454" type="veh1">
      <route edges="KL_E1 KL_E2 YB_A2 YB_A1 KC_E1"/>
   </vehicle>
   <vehicle depart="145.00" id="8728" type="veh1">
      <route edges="YB_E1 YB_E2 KL_G1"/>
   </vehicle>
   <vehicle depart="149.00" id="129" type="veh1">
      <route edges="GH_G GH_G2 GH_G3 GH_B2 KL_C1 KL_C2 KL_E2 YB_A2"/>
   </vehicle>
   <vehicle depart="150.00" id="33" type="veh1">
      <route edges="GH_A1 GH_A2 GH_C2 GH_F"/>
   </vehicle>
   <vehicle depart="150.00" id="82" type="veh1">
      <route edges="GH_C GH_C2 GH_H1 GH_H2"/>
   </vehicle>
   <vehicle depart="150.00" id="4441" type="veh1">
      <route edges="KL_E1 KL_E2 YB_A2"/>
   </vehicle>
   <vehicle depart="151.00" id="4452" type="veh1">
      <route edges="KL_E1 KL_E2 YB_A2"/>
   </vehicle>
   <vehicle depart="152.00" id="8700" type="veh1">
      <route edges="YB_C YB_C1 YB_E2 YB_G1 YB_B"/>
   </vehicle>
   <vehicle depart="153.00" id="10" type="veh1">
      <route edges="GH_A1 GH_B1 KL_C1"/>
   </vehicle>
   <vehicle depart="155.00" id="94" type="veh1">
      <route edges="GH_C GH_C2 GH_H1 GH_H2"/>
   </vehicle>
   <vehicle depart="155.00" id="4477" type="veh1">
      <route edges="KL_E1 KL_E2 KL_G2 GH_C GH_C2 GH_F"/>
   </vehicle>
   <vehicle depart="156.00" id="41" type="veh1">
      <route edges="GH_A1 GH_A2 GH_C2 GH_F"/>
   </vehicle>
   <vehicle depart="156.00" id="8734" type="veh1">
      <route edges="YB_G KL_G1"/>
   </vehicle>
   <vehicle depart="157.00" id="8698" type="veh1">
      <route edges="YB_C YB_C1 YB_E2 KL_G1"/>
   </vehicle>
   <vehicle depart="158.00" id="44" type="veh1">
      <route edges="GH_A1 GH_A2 GH_C2 GH_F"/>
   </vehicle>
   <vehicle depart="162.00" id="72" type="veh1">
      <route edges="GH_C GH_C2 GH_F"/>
   </vehicle>
   <vehicle depart="162.00" id="12083" type="veh1">
      <route edges="KC_C KC_C1 KC_F"/>
   </vehicle>
   <vehicle depart="162.00" id="12107" type="veh1">
      <route edges="KC_G KC_G1 KC_B"/>
   </vehicle>
   <vehicle depart="163.00" id="8705" type="veh1">
      <route edges="YB_E1 YB_E2 KL_G1"/>
   </vehicle>
   <vehicle depart="163.00" id="12033" type="veh1">
      <route edges="KC_A1 KC_B"/>
   </vehicle>
   <vehicle depart="164.00" id="8720" type="veh1">
      <route edges="YB_E1 YB_E2 KL_G1 KL_G2 KL_C2 KL_D"/>
   </vehicle>
   <vehicle depart="165.00" id="17" type="veh1">
      <route edges="GH_A1 GH_B1 KL_C1 KL_C2 KL_E2 YB_A2"/>
   </vehicle>
   <vehicle depart="167.00" id="91" type="veh1">
      <route edges="GH_C GH_C2 GH_H1 GH_H2"/>
   </vehicle>
   <vehicle depart="169.00" id="53" type="veh1">
      <route edges="GH_C GH_C2 GH_F"/>
   </vehicle>
   <vehicle depart="169.00" id="105" type="veh1">
      <route edges="GH_G GH_G1 GH_H2"/>
   </vehicle>
   <vehicle depart="169.00" id="12067" type="veh1">
      <route edges="KC_A1 KC_A2 YB_E1 YB_E2 KL_G1"/>
   </vehicle>
   <vehicle depart="170.00" id="19" type="veh1">
      <route edges="GH_A1 GH_B1 KL_C1"/>
   </vehicle>
   <vehicle depart="171.00" id="8710" type="veh1">
      <route edges="YB_E1 YB_E2 KL_G1 KL_G2 KL_C2 KL_D"/>
   </vehicle>
   <vehicle depart="171.00" id="8717" type="veh1">
      <route edges="YB_E1 YB_E2 KL_G1 KL_G2 KL_C2 KL_D"/>
   </vehicle>
   <vehicle depart="172.00" id="58" type="veh1">
      <route edges="GH_C GH_C2 GH_F"/>
   </vehicle>
   <vehicle depart="173.00" id="3" type="veh1">
      <route edges="GH_A1 GH_B1 KL_C1"/>
   </vehicle>
   <vehicle depart="173.00" id="13" type="veh1">
      <route edges="GH_A1 GH_B1 KL_C1"/>
   </vehicle>
   <vehicle depart="175.00" id="4451" type="veh1">
      <route edges="KL_E1 KL_E2 YB_A2"/>
   </vehicle>
   <vehicle depart="175.00" id="4472" type="veh1">
      <route edges="KL_E1 KL_E2 YB_A2"/>
   </vehicle>
   <vehicle depart="175.00" id="8729" type="veh1">
      <route edges="YB_E1 YB_E2 YB_G1 YB_B"/>
   </vehicle>
   <vehicle depart="176.00" id="36" type="veh1">
      <route edges="GH_A1 GH_A2 GH_C2 GH_F"/>
   </vehicle>
   <vehicle depart="176.00" id="8683" type="veh1">
      <route edges="YB_C KC_E1"/>
   </vehicle>
   <vehicle depart="176.00" id="12092" type="veh1">
      <route edges="KC_E1 KC_E2 KC_H"/>
   </vehicle>
   <vehicle depart="178.00" id="12" type="veh1">
      <route edges="GH_A1 GH_B1 KL_C1"/>
   </vehicle>
   <vehicle depart="178.00" id="4450" type="veh1">
      <route edges="KL_E1 KL_E2 YB_A2"/>
   </vehicle>
   <vehicle depart="178.00" id="4462" type="veh1">
      <route edges="KL_E1 KL_E2 YB_A2"/>
   </vehicle>
   <vehicle depart="178.00" id="12100" type="veh1">
      <route edges="KC_E1 KC_E2 KC_H"/>
   </vehicle>
   <vehicle depart="179.00" id="1" type="veh1">
      <route edges="GH_A1 GH_B1 KL_C1 KL_C2 KL_E2 YB_A2"/>
   </vehicle>
   <vehicle depart="179.00" id="57" type="veh1">
      <route edges="GH_C GH_C2 GH_F"/>
   </vehicle>
   <vehicle depart="180.00" id="12035" type="veh1">
      <route edges="KC_A1 KC_B"/>
   </vehicle>
   <vehicle depart="181.00" id="26" type="veh1">
      <route edges="GH_A1 GH_B1 KL_C1"/>
   </vehicle>
   <vehicle depart="182.00" id="12042" type="veh1">
      <route edges="KC_A1 KC_A2 YB_E1"/>
   </vehicle>
   <vehicle depart="183.00" id="63" type="veh1">
      <route edges="GH_C GH_C2 GH_F"/>
   </vehicle>
   <vehicle depart="187.00" id="4449" type="veh1">
      <route edges="KL_E1 KL_E2 YB_A2 YB_A1 KC_E1 KC_E2 KC_G1 KC_B"/>
   </vehicle>
   <vehicle depart="190.00" id="4515" type="veh1">
      <route edges="KL_G1 KL_G2 GH_C GH_C2 GH_F"/>
   </vehicle>
   <vehicle depart="192.00" id="4471" type="veh1">
      <route edges="KL_E1 KL_E2 YB_A2"/>
   </vehicle>
   <vehicle depart="193.00" id="4485" type="veh1">
      <route edges="KL_E1 KL_E2 KL_G2 GH_C"/>
   </vehicle>
   <vehicle depart="193.00" id="4495" type="veh1">
      <route edges="KL_G1 KL_G2 GH_C"/>
   </vehicle>
   <vehicle depart="194.00" id="4394" type="veh1">
      <route edges="KL_C1 KL_C2 KL_D"/>
   </vehicle>
   <vehicle depart="194.00" id="4497" type="veh1">
      <route edges="KL_G1 KL_G2 GH_C GH_C2 GH_F"/>
   </vehicle>
   <vehicle depart="195.00" id="4415" type="veh1">
      <route edges="KL_C1 KL_C2 KL_E2 YB_A2 YB_A1 KC_E1 KC_E2 KC_H"/>
   </vehicle>
   <vehicle depart="195.00" id="12080" type="veh1">
      <route edges="KC_A1 KC_A2 KC_C1 KC_E2 KC_H"/>
   </vehicle>
   <vehicle depart="196.00" id="37" type="veh1">
      <route edges="GH_A1 GH_A2 GH_C2 GH_F"/>
   </vehicle>
   <vehicle depart="196.00" id="4532" type="veh1">
      <route edges="KL_G1 KL_G2 KL_C2 KL_D"/>
   </vehicle>
   <vehicle depart="199.00" id="4481" type="veh1">
      <route edges="KL_E1 KL_E2 KL_G2 GH_C"/>
   </vehicle>
   <vehicle depart="200.00" id="8688" type="veh1">
      <route edges="YB_C YB_C1 YB_F"/>
   </vehicle>
   <vehicle depart="201.00" id="4404" type="veh1">
      <route edges="KL_C1 KL_C2 KL_D"/>
   </vehicle>
   <vehicle depart="201.00" id="4414" type="veh1">
      <route edges="KL_C1 KL_C2 KL_E2 YB_A2 YB_A1 KC_E1 KC_E2 KC_G1 KC_B"/>
   </vehicle>
   <vehicle depart="208.00" id="8686" type="veh1">
      <route edges="YB_C YB_C1 YB_F"/>
   </vehicle>
   <vehicle depart="210.00" id="4444" type="veh1">
      <route edges="KL_E1 KL_E2 YB_A2"/>
   </vehicle>
   <vehicle depart="210.00" id="4460" type="veh1">
      <route edges="KL_E1 KL_E2 YB_A2"/>
   </vehicle>
   <vehicle depart="210.00" id="12062" type="veh1">
      <route edges="KC_A1 KC_A2 YB_E1 YB_E2 KL_G1"/>
   </vehicle>
   <vehicle depart="212.00" id="4413" type="veh1">
      <route edges="KL_C1 KL_C2 KL_E2 YB_A2 YB_A1 YB_C1 YB_F"/>
   </vehicle>
   <vehicle depart="212.00" id="4440" type="veh1">
      <route edges="KL_E1 KL_E2 YB_A2"/>
   </vehicle>
   <vehicle depart="215.00" id="56" type="veh1">
      <route edges="GH_C GH_C2 GH_F"/>
   </vehicle>
   <vehicle depart="216.00" id="18" type="veh1">
      <route edges="GH_A1 GH_B1 KL_C1 KL_C2 KL_D"/>
   </vehicle>
   <vehicle depart="216.00" id="4453" type="veh1">
      <route edges="KL_E1 KL_E2 YB_A2"/>
   </vehicle>
   <vehicle depart="220.00" id="27" type="veh1">
      <route edges="GH_A1 GH_B1 KL_C1"/>
   </vehicle>
   <vehicle depart="220.00" id="8694" type="veh1">
      <route edges="YB_C YB_C1 YB_E2 KL_G1 KL_G2 KL_C2 KL_D"/>
   </vehicle>
   <vehicle depart="220.00" id="8736" type="veh1">
      <route edges="YB_G YB_G1 YB_B"/>
   </vehicle>
   <vehicle depart="220.00" id="12093" type="veh1">
      <route edges="KC_E1 KC_E2 KC_H"/>
   </vehicle>
   <vehicle depart="223.00" id="12036" type="veh1">
      <route edges="KC_A1 KC_B"/>
   </vehicle>
   <vehicle depart="225.00" id="7" type="veh1">
      <route edges="GH_A1 GH_B1 KL_C1 KL_C2 KL_D"/>
   </vehicle>
   <vehicle depart="227.00" id="4486" type="veh1">
      <route edges="KL_E1 KL_E2 KL_G2 GH_C GH_C2 GH_F"/>
   </vehicle>
   <vehicle depart="227.00" id="8724" type="veh1">
      <route edges="YB_E1 YB_E2 KL_G1 KL_G2 KL_C2 KL_D"/>
   </vehicle>
   <vehicle depart="229.00" id="4465" type="veh1">
      <route edges="KL_E1 KL_E2 YB_A2"/>
   </vehicle>
   <vehicle depart="230.00" id="103" type="veh1">
      <route edges="GH_G GH_G1 GH_H2"/>
   </vehicle>
   <vehicle depart="231.00" id="4467" type="veh1">
      <route edges="KL_E1 KL_E2 YB_A2"/>
   </vehicle>
   <vehicle depart="231.00" id="4474" type="veh1">
      <route edges="KL_E1 KL_E2 YB_A2"/>
   </vehicle>
   <vehicle depart="233.00" id="38" type="veh1">
      <route edges="GH_A1 GH_A2 GH_C2 GH_F"/>
   </vehicle>
   <vehicle depart="233.00" id="4488" type="veh1">
      <route edges="KL_E1 KL_E2 KL_G2 GH_C GH_C2 GH_H1 GH_H2"/>
   </vehicle>
   <vehicle depart="235.00" id="8690" type="veh1">
      <route edges="YB_C YB_C1 YB_E2 KL_G1"/>
   </vehicle>
   <vehicle depart="236.00" id="42" type="veh1">
      <route edges="GH_A1 GH_A2 GH_C2 GH_F"/>
   </vehicle>
   <vehicle depart="237.00" id="23" type="veh1">
      <route edges="GH_A1 GH_B1 KL_C1"/>
   </vehicle>
   <vehicle depart="239.00" id="4484" type="veh1">
      <route edges="KL_E1 KL_E2 KL_G2 GH_C GH_C2 GH_F"/>
   </vehicle>
   <vehicle depart="240.00" id="12105" type="veh1">
      <route edges="KC_G KC_G1 KC_B"/>
   </vehicle>
   <vehicle depart="244.00" id="6" type="veh1">
      <route edges="GH_A1 GH_B1 KL_C1 KL_C2 KL_D"/>
   </vehicle>
   <vehicle depart="245.00" id="20" type="veh1">
      <route edges="GH_A1 GH_B1 KL_C1"/>
   </vehicle>
   <vehicle depart="246.00" id="8695" type="veh1">
      <route edges="YB_C YB_C1 YB_E2 KL_G1 KL_G2 GH_C"/>
   </vehicle>
   <vehicle depart="246.00" id="8725" type="veh1">
      <route edges="YB_E1 YB_E2 KL_G1"/>
   </vehicle>
   <vehicle depart="247.00" id="8671" type="veh1">
      <route edges="YB_A2 YB_A1 KC_E1"/>
   </vehicle>
   <vehicle depart="248.00" id="12041" type="veh1">
      <route edges="KC_A1 KC_A2 YB_E1"/>
   </vehicle>
   <vehicle depart="250.00" id="8" type="veh1">
      <route edges="GH_A1 GH_B1 KL_C1"/>
   </vehicle>
   <vehicle depart="250.00" id="12048" type="veh1">
      <route edges="KC_A1 KC_A2 YB_E1 YB_E2 KL_G1 KL_G2 GH_C"/>
   </vehicle>
   <vehicle depart="252.00" id="4" type="veh1">
      <route edges="GH_A1 GH_B1 KL_C1 KL_C2 KL_E2 YB_A2 YB_B"/>
   </vehicle>
   <vehicle depart="253.00" id="12058" type="veh1">
      <route edges="KC_A1 KC_A2 YB_E1"/>
   </vehicle>
   <vehicle depart="255.00" id="100" type="veh1">
      <route edges="GH_E GH_G3 GH_B2 KL_C1"/>
   </vehicle>
   <vehicle depart="255.00" id="8702" type="veh1">
      <route edges="YB_C YB_C1 YB_E2 YB_G1 YB_B"/>
   </vehicle>
   <vehicle depart="258.00" id="4478" type="veh1">
      <route edges="KL_E1 KL_E2 KL_G2 GH_C GH_C2 GH_H1 GH_H2"/>
   </vehicle>
   <vehicle depart="260.00" id="4506" type="veh1">
      <route edges="KL_G1 KL_G2 GH_C GH_C2 GH_H1 GH_H2"/>
   </vehicle>
   <vehicle depart="261.00" id="16" type="veh1">
      <route edges="GH_A1 GH_B1 KL_C1 KL_C2 KL_D"/>
   </vehicle>
   <vehicle depart="261.00" id="8679" type="veh1">
      <route edges="YB_A2 YB_A1 YB_C1 YB_F"/>
   </vehicle>
   <vehicle depart="264.00" id="8665" type="veh1">
      <route edges="YB_A2 YB_A1 KC_E1"/>
   </vehicle>
   <vehicle depart="264.00" id="8732" type="veh1">
      <route edges="YB_G KL_G1"/>
   </vehicle>
   <vehicle depart="264.00" id="12050" type="veh1">
      <route edges="KC_A1 KC_A2 YB_E1"/>
   </vehicle>
   <vehicle depart="266.00" id="4463" type="veh1">
      <route edges="KL_E1 KL_E2 YB_A2"/>
   </vehicle>
   <vehicle depart="266.00" id="12097" type="veh1">
      <route edges="KC_E1 KC_E2 KC_H"/>
   </vehicle>
   <vehicle depart="266.00" id="12108" type="veh1">
      <route edges="KC_G KC_G1 KC_B"/>
   </vehicle>
   <vehicle depart="267.00" id="87" type="veh1">
      <route edges="GH_C GH_C2 GH_H1 GH_H2"/>
   </vehicle>
   <vehicle depart="267.00" id="4458" type="veh1">
      <route edges="KL_E1 KL_E2 YB_A2"/>
   </vehicle>
   <vehicle depart="267.00" id="12049" type="veh1">
      <route edges="KC_A1 KC_A2 YB_E1"/>
   </vehicle>
   <vehicle depart="268.00" id="12086" type="veh1">
      <route edges="KC_E1 KC_F"/>
   </vehicle>
   <vehicle depart="270.00" id="32" type="veh1">
      <route edges="GH_A1 GH_A2 GH_C2 GH_F"/>
   </vehicle>
   <vehicle depart="272.00" id="101" type="veh1">
      <route edges="GH_E GH_G3 GH_B2 KL_C1 KL_C2 KL_E2 YB_A2"/>
   </vehicle>
   <vehicle depart="274.00" id="21" type="veh1">
      <route edges="GH_A1 GH_B1 KL_C1 KL_C2 KL_E2 YB_A2"/>
   </vehicle>
   <vehicle depart="274.00" id="4411" type="veh1">
      <route edges="KL_C1 KL_C2 KL_E2 YB_A2"/>
   </vehicle>
   <vehicle depart="275.00" id="8685" type="veh1">
      <route edges="YB_C YB_C1 YB_F"/>
   </vehicle>
   <vehicle depart="276.00" id="22" type="veh1">
      <route edges="GH_A1 GH_B1 KL_C1 KL_C2 KL_E2 YB_A2"/>
   </vehicle>
   <vehicle depart="277.00" id="4483" type="veh1">
      <route edges="KL_E1 KL_E2 KL_G2 GH_C GH_C2 GH_H1 GH_H2"/>
   </vehicle>
   <vehicle depart="278.00" id="126" type="veh1">
      <route edges="GH_G GH_G2 GH_G3 GH_B2 KL_C1"/>
   </vehicle>
   <vehicle depart="280.00" id="115" type="veh1">
      <route edges="GH_G GH_G2 GH_G3 GH_B2 KL_C1"/>
   </vehicle>
   <vehicle depart="282.00" id="4461" type="veh1">
      <route edges="KL_E1 KL_E2 YB_A2 YB_A1 KC_E1"/>
   </vehicle>
   <vehicle depart="282.00" id="8703" type="veh1">
      <route edges="YB_C YB_C1 YB_E2 YB_G1 YB_B"/>
   </vehicle>
   <vehicle depart="283.00" id="4494" type="veh1">
      <route edges="KL_G1 KL_G2 GH_C GH_C2 GH_F"/>
   </vehicle>
   <vehicle depart="284.00" id="40" type="veh1">
      <route edges="GH_A1 GH_A2 GH_C2 GH_F"/>
   </vehicle>
   <vehicle depart="285.00" id="4493" type="veh1">
      <route edges="KL_G1 KL_G2 GH_C GH_C2 GH_F"/>
   </vehicle>
   <vehicle depart="286.00" id="12106" type="veh1">
      <route edges="KC_G KC_G1 KC_B"/>
   </vehicle>
   <vehicle depart="287.00" id="111" type="veh1">
      <route edges="GH_G GH_G2 GH_G3 GH_B2 KL_C1"/>
   </vehicle>
   <vehicle depart="287.00" id="4511" type="veh1">
      <route edges="KL_G1 KL_G2 GH_C GH_C2 GH_F"/>
   </vehicle>
   <vehicle depart="287.00" id="12053" type="veh1">
      <route edges="KC_A1 KC_A2 YB_E1"/>
   </vehicle>
   <vehicle depart="287.00" id="12109" type="veh1">
      <route edges="KC_G KC_G1 KC_B"/>
   </vehicle>
   <vehicle depart="288.00" id="4457" type="veh1">
      <route edges="KL_E1 KL_E2 YB_A2 YB_A1 KC_E1 KC_F"/>
   </vehicle>
   <vehicle depart="289.00" id="28" type="veh1">
      <route edges="GH_A1 GH_B1 KL_C1"/>
   </vehicle>
   <vehicle depart="289.00" id="104" type="veh1">
      <route edges="GH_G GH_G1 GH_H2"/>
   </vehicle>
   <vehicle depart="290.00" id="43" type="veh1">
      <route edges="GH_A1 GH_A2 GH_C2 GH_F"/>
   </vehicle>
   <vehicle depart="293.00" id="31" type="veh1">
      <route edges="GH_A1 GH_A2 GH_C2 GH_F"/>
   </vehicle>
   <vehicle depart="294.00" id="8701" type="veh1">
      <route edges="YB_C YB_C1 YB_E2 YB_G1 YB_B"/>
   </vehicle>
   <vehicle depart="295.00" id="24" type="veh1">
      <route edges="GH_A1 GH_B1 KL_C1 KL_C2 KL_E2 YB_A2"/>
   </vehicle>
   <vehicle depart="300.00" id="8768" type="veh1">
      <route edges="YB_C YB_C1 YB_E2 KL_G1 KL_G2 KL_C2 KL_D"/>
   </vehicle>
   <vehicle depart="302.00" id="12046" type="veh1">
      <route edges="KC_A1 KC_A2 YB_E1"/>
   </vehicle>
   <vehicle depart="303.00" id="69" type="veh1">
      <route edges="GH_C GH_C2 GH_F"/>
   </vehicle>