<?xml version="1.0" ?>
<routes xmlns:xsi="http://www.w3.org/2001/XMLSchema-instance" xsi:noNamespaceSchemaLocation="http://sumo.dlr.de/xsd/routes_file.xsd">
   <vType id="veh1" laneChangeModel="LC2013" lcCooperative="5.0" lcKeepRight="3.0" lcSpeedGain="5.0" lcStrategic="10.0" length="4.00" maxSpeed="55.00" minGap="1.50" vClass="passenger"/>
   <vehicle depart="0.00" id="4422" type="veh1">
      <route edges="KL_C1 KL_C2 KL_E2 YB_A2 YB_A1 YB_C1 YB_F"/>
   </vehicle>
   <vehicle depart="0.00" id="12037" type="veh1">
      <route edges="KC_A1 KC_B"/>
   </vehicle>
   <vehicle depart="0.00" id="15132" type="veh1">
      <route edges="GH_A1 GH_A2 GH_C2 GH_F"/>
   </vehicle>
   <vehicle depart="0.00" id="15425" type="veh1">
      <route edges="GH_G GH_G2 GH_G3 GH_B2 KL_C1 KL_C2 KL_D"/>
   </vehicle>
   <vehicle depart="0.00" id="21529" type="veh1">
      <route edges="YB_C YB_C1 YB_E2 KL_G1 KL_G2 KL_C2 KL_D"/>
   </vehicle>
   <vehicle depart="0.00" id="21625" type="veh1">
      <route edges="YB_E1 YB_E2 YB_G1 YB_B"/>
   </vehicle>
   <vehicle depart="0.00" id="24063" type="veh1">
      <route edges="KC_A1 KC_B"/>
   </vehicle>
   <vehicle depart="0.00" id="24196" type="veh1">
      <route edges="KC_G KC_H"/>
   </vehicle>
   <vehicle depart="1.00" id="15085" type="veh1">
      <route edges="GH_A1 GH_B1 KL_C1 KL_C2 KL_D"/>
   </vehicle>
   <vehicle depart="2.00" id="4489" type="veh1">
      <route edges="KL_E1 KL_E2 KL_G2 GH_C GH_C2 GH_H1 GH_H2"/>
   </vehicle>
   <vehicle depart="2.00" id="8733" type="veh1">
      <route edges="YB_G KL_G1 KL_G2 GH_C GH_C2 GH_F"/>
   </vehicle>
   <vehicle depart="2.00" id="12056" type="veh1">
      <route edges="KC_A1 KC_A2 YB_E1 YB_E2 KL_G1 KL_G2 KL_C2 KL_D"/>
   </vehicle>
   <vehicle depart="2.00" id="21598" type="veh1">
      <route edges="YB_E1 YB_E2 KL_G1 KL_G2 KL_C2 KL_D"/>
   </vehicle>
   <vehicle depart="2.00" id="21637" type="veh1">
      <route edges="YB_G KL_G1 KL_G2 GH_C GH_C2 GH_H1 GH_H2"/>
   </vehicle>
   <vehicle depart="3.00" id="15263" type="veh1">
      <route edges="GH_C GH_C2 GH_H1 GH_H2"/>
   </vehicle>
   <vehicle depart="3.00" id="18206" type="veh1">
      <route edges="KL_E1 KL_E2 YB_A2 YB_A1 KC_E1 KC_E2 KC_H"/>
   </vehicle>
   <vehicle depart="3.00" id="21605" type="veh1">
      <route edges="YB_E1 YB_E2 KL_G1"/>
   </vehicle>
   <vehicle depart="3.00" id="21651" type="veh1">
      <route edges="YB_G KL_G1"/>
   </vehicle>
   <vehicle depart="3.00" id="24066" type="veh1">
      <route edges="KC_A1 KC_B"/>
   </vehicle>
   <vehicle depart="4.00" id="18146" type="veh1">
      <route edges="KL_C1 KL_C2 KL_E2 YB_A2 YB_A1 YB_C1 YB_F"/>
   </vehicle>
   <vehicle depart="4.00" id="18248" type="veh1">
      <route edges="KL_E1 KL_E2 KL_G2 GH_C GH_C2 GH_F"/>
   </vehicle>
   <vehicle depart="4.00" id="18251" type="veh1">
      <route edges="KL_E1 KL_E2 KL_G2 GH_C GH_C2 GH_F"/>
   </vehicle>
   <vehicle depart="4.00" id="24089" type="veh1">
      <route edges="KC_A1 KC_A2 YB_E1 YB_E2 KL_G1 KL_G2 GH_C GH_C2 GH_H1 GH_H2"/>
   </vehicle>
   <vehicle depart="5.00" id="8711" type="veh1">
      <route edges="YB_E1 YB_E2 KL_G1 KL_G2 GH_C GH_C2 GH_F"/>
   </vehicle>
   <vehicle depart="5.00" id="21520" type="veh1">
      <route edges="YB_C YB_C1 YB_E2 KL_G1 KL_G2 KL_C2 KL_D"/>
   </vehicle>
   <vehicle depart="5.00" id="21567" type="veh1">
      <route edges="YB_E1 YB_E2 KL_G1"/>
   </vehicle>
   <vehicle depart="6.00" id="12102" type="veh1">
      <route edges="KC_E1 KC_E2 KC_G1 KC_B"/>
   </vehicle>
   <vehicle depart="6.00" id="18144" type="veh1">
      <route edges="KL_C1 KL_C2 KL_E2 YB_A2 YB_A1 YB_C1 YB_F"/>
   </vehicle>
   <vehicle depart="6.00" id="18191" type="veh1">
      <route edges="KL_E1 KL_E2 YB_A2"/>
   </vehicle>
   <vehicle depart="7.00" id="25" type="veh1">
      <route edges="GH_A1 GH_B1 KL_C1 KL_C2 KL_D"/>
   </vehicle>
   <vehicle depart="7.00" id="12057" type="veh1">
      <route edges="KC_A1 KC_A2 YB_E1 YB_E2 KL_G1 KL_G2 GH_C GH_C2 GH_F"/>
   </vehicle>
   <vehicle depart="7.00" id="15265" type="veh1">
      <route edges="GH_C GH_C2 GH_H1 GH_H2"/>
   </vehicle>
   <vehicle depart="7.00" id="18152" type="veh1">
      <route edges="KL_C1 KL_C2 KL_E2 YB_A2 YB_A1 YB_C1 YB_F"/>
   </vehicle>
   <vehicle depart="8.00" id="18208" type="veh1">
      <route edges="KL_E1 KL_E2 YB_A2"/>
   </vehicle>
   <vehicle depart="8.00" id="24171" type="veh1">
      <route edges="KC_E1 KC_E2 KC_H"/>
   </vehicle>
   <vehicle depart="9.00" id="18224" type="veh1">
      <route edges="KL_E1 KL_E2 YB_A2"/>
   </vehicle>
   <vehicle depart="9.00" id="21611" type="veh1">
      <route edges="YB_E1 YB_E2 KL_G1 KL_G2 KL_C2 KL_D"/>
   </vehicle>
   <vehicle depart="10.00" id="15324" type="veh1">
      <route edges="GH_G GH_G1 GH_H2"/>
   </vehicle>
   <vehicle depart="10.00" id="21663" type="veh1">
      <route edges="YB_G YB_G1 YB_A1 KC_E1 KC_E2 KC_G1 KC_B"/>
   </vehicle>
   <vehicle depart="11.00" id="4456" type="veh1">
      <route edges="KL_E1 KL_E2 YB_A2 YB_A1 KC_E1 KC_E2 KC_H"/>
   </vehicle>
   <vehicle depart="11.00" id="18153" type="veh1">
      <route edges="KL_C1 KL_C2 KL_E2 YB_A2"/>
   </vehicle>
   <vehicle depart="11.00" id="18233" type="veh1">
      <route edges="KL_E1 KL_E2 KL_G2 GH_C GH_C2 GH_H1 GH_H2"/>
   </vehicle>
   <vehicle depart="11.00" id="21667" type="veh1">
      <route edges="YB_G YB_G1 YB_A1 KC_E1"/>
   </vehicle>
   <vehicle depart="11.00" id="24069" type="veh1">
      <route edges="KC_A1 KC_B"/>
   </vehicle>
   <vehicle depart="12.00" id="4482" type="veh1">
      <route edges="KL_E1 KL_E2 KL_G2 GH_C GH_C2 GH_F"/>
   </vehicle>
   <vehicle depart="12.00" id="15431" type="veh1">
      <route edges="GH_G GH_G2 GH_G3 GH_B2 KL_C1 KL_C2 KL_E2 YB_A2 YB_A1 KC_E1"/>
   </vehicle>
   <vehicle depart="12.00" id="21495" type="veh1">
      <route edges="YB_C KC_E1 KC_E2 KC_H"/>
   </vehicle>
   <vehicle depart="12.00" id="24073" type="veh1">
      <route edges="KC_A1 KC_B"/>
   </vehicle>
   <vehicle depart="13.00" id="12052" type="veh1">
      <route edges="KC_A1 KC_A2 YB_E1 YB_E2 KL_G1 KL_G2 KL_C2 KL_D"/>
   </vehicle>
   <vehicle depart="13.00" id="18242" type="veh1">
      <route edges="KL_E1 KL_E2 KL_G2 GH_C GH_C2 GH_F"/>
   </vehicle>
   <vehicle depart="14.00" id="21573" type="veh1">
      <route edges="YB_E1 YB_E2 KL_G1"/>
   </vehicle>
   <vehicle depart="14.00" id="24094" type="veh1">
      <route edges="KC_A1 KC_A2 YB_E1"/>
   </vehicle>
   <vehicle depart="15.00" id="39" type="veh1">
      <route edges="GH_A1 GH_A2 GH_C2 GH_F"/>
   </vehicle>
   <vehicle depart="15.00" id="21554" type="veh1">
      <route edges="YB_E1 YB_F"/>
   </vehicle>
   <vehicle depart="15.00" id="21593" type="veh1">
      <route edges="YB_E1 YB_E2 KL_G1 KL_G2 KL_C2 KL_D"/>
   </vehicle>
   <vehicle depart="15.00" id="21628" type="veh1">
      <route edges="YB_E1 YB_E2 YB_G1 YB_A1 KC_E1 KC_E2 KC_H"/>
   </vehicle>
   <vehicle depart="15.00" id="24055" type="veh1">
      <route edges="KC_A1 KC_B"/>
   </vehicle>
   <vehicle depart="16.00" id="110" type="veh1">
      <route edges="GH_G GH_G2 GH_G3 GH_B2 KL_C1 KL_C2 KL_D"/>
   </vehicle>
   <vehicle depart="16.00" id="24077" type="veh1">
      <route edges="KC_A1 KC_A2 YB_E1 YB_E2 KL_G1 KL_G2 GH_C GH_C2 GH_F"/>
   </vehicle>
   <vehicle depart="16.00" id="24127" type="veh1">
      <route edges="KC_A1 KC_A2 KC_C1 KC_F"/>
   </vehicle>
   <vehicle depart="17.00" id="12044" type="veh1">
      <route edges="KC_A1 KC_A2 YB_E1 YB_E2 KL_G1 KL_G2 KL_C2 KL_D"/>
   </vehicle>
   <vehicle depart="17.00" id="15390" type="veh1">
      <route edges="GH_G GH_G2 GH_G3 GH_B2 KL_C1 KL_C2 KL_D"/>
   </vehicle>
   <vehicle depart="17.00" id="18107" type="veh1">
      <route edges="KL_C1 KL_C2 KL_D"/>
   </vehicle>
   <vehicle depart="18.00" id="18167" type="veh1">
      <route edges="KL_E1 KL_E2 YB_A2 YB_A1 KC_E1"/>
   </vehicle>
   <vehicle depart="18.00" id="24211" type="veh1">
      <route edges="KC_G KC_G1 KC_A2 YB_E1"/>
   </vehicle>
   <vehicle depart="19.00" id="8682" type="veh1">
      <route edges="YB_C KC_E1 KC_E2 KC_H"/>
   </vehicle>
   <vehicle depart="20.00" id="4491" type="veh1">
      <route edges="KL_E1 KL_E2 KL_G2 GH_C GH_C2 GH_F"/>
   </vehicle>
   <vehicle depart="20.00" id="12077" type="veh1">
      <route edges="KC_A1 KC_A2 KC_C1 KC_F"/>
   </vehicle>
   <vehicle depart="20.00" id="15349" type="veh1">
      <route edges="GH_G GH_G1 GH_H2"/>
   </vehicle>
   <vehicle depart="21.00" id="4476" type="veh1">
      <route edges="KL_E1 KL_E2 YB_A2 YB_A1 KC_E1"/>
   </vehicle>
   <vehicle depart="21.00" id="18137" type="veh1">
      <route edges="KL_C1 KL_C2 KL_E2 YB_A2 YB_A1 KC_E1"/>
   </vehicle>
   <vehicle depart="21.00" id="24083" type="veh1">
      <route edges="KC_A1 KC_A2 YB_E1 YB_E2 KL_G1 KL_G2 KL_C2 KL_D"/>
   </vehicle>
   <vehicle depart="22.00" id="12065" type="veh1">
      <route edges="KC_A1 KC_A2 YB_E1 YB_E2 KL_G1 KL_G2 GH_C GH_C2 GH_H1 GH_H2"/>
   </vehicle>
   <vehicle depart="23.00" id="113" type="veh1">
      <route edges="GH_G GH_G2 GH_G3 GH_B2 KL_C1 KL_C2 KL_D"/>
   </vehicle>
   <vehicle depart="23.00" id="24109" type="veh1">
      <route edges="KC_A1 KC_A2 YB_E1 YB_E2 KL_G1"/>
   </vehicle>
   <vehicle depart="23.00" id="24200" type="veh1">
      <route edges="KC_G KC_G1 KC_B"/>
   </vehicle>
   <vehicle depart="24.00" id="24194" type="veh1">
      <route edges="KC_G KC_H"/>
   </vehicle>
   <vehicle depart="25.00" id="12070" type="veh1">
      <route edges="KC_A1 KC_A2 YB_E1 YB_E2 KL_G1 KL_G2 GH_C GH_C2 GH_F"/>
   </vehicle>
   <vehicle depart="25.00" id="18253" type="veh1">
      <route edges="KL_E1 KL_E2 KL_G2 GH_C GH_C2 GH_F"/>
   </vehicle>
   <vehicle depart="25.00" id="24133" type="veh1">
      <route edges="KC_C YB_E1 YB_F"/>
   </vehicle>
   <vehicle depart="26.00" id="15180" type="veh1">
      <route edges="GH_C GH_C2 GH_F"/>
   </vehicle>
   <vehicle depart="26.00" id="15317" type="veh1">
      <route edges="GH_E GH_H1 GH_H2"/>
   </vehicle>
   <vehicle depart="26.00" id="18131" type="veh1">
      <route edges="KL_C1 KL_C2 KL_E2 YB_A2 YB_A1 KC_E1"/>
   </vehicle>
   <vehicle depart="29.00" id="21493" type="veh1">
      <route edges="YB_A2 YB_A1 YB_C1 YB_E2 KL_G1"/>
   </vehicle>
   <vehicle depart="29.00" id="21497" type="veh1">
      <route edges="YB_C KC_E1 KC_E2 KC_H"/>
   </vehicle>
   <vehicle depart="30.00" id="8692" type="veh1">
      <route edges="YB_C YB_C1 YB_E2 KL_G1 KL_G2 GH_C GH_C2 GH_F"/>
   </vehicle>
   <vehicle depart="30.00" id="15234" type="veh1">
      <route edges="GH_C GH_C2 GH_H1 GH_H2"/>
   </vehicle>
   <vehicle depart="30.00" id="15243" type="veh1">
      <route edges="GH_C GH_C2 GH_H1 GH_H2"/>
   </vehicle>
   <vehicle depart="30.00" id="15266" type="veh1">
      <route edges="GH_C GH_C2 GH_H1 GH_H2"/>
   </vehicle>
   <vehicle depart="30.00" id="21479" type="veh1">
      <route edges="YB_A2 YB_A1 YB_C1 YB_F"/>
   </vehicle>
   <vehicle depart="30.00" id="21632" type="veh1">
      <route edges="YB_E1 YB_E2 YB_G1 YB_A1 KC_E1 KC_E2 KC_H"/>
   </vehicle>
   <vehicle depart="31.00" id="21543" type="veh1">
      <route edges="YB_C YB_C1 YB_E2 KL_G1"/>
   </vehicle>
   <vehicle depart="32.00" id="15376" type="veh1">
      <route edges="GH_G GH_G2 GH_G3 GH_B2 KL_C1 KL_C2 KL_D"/>
   </vehicle>
   <vehicle depart="32.00" id="21472" type="veh1">
      <route edges="YB_A2 YB_A1 YB_C1 YB_F"/>
   </vehicle>
   <vehicle depart="32.00" id="21500" type="veh1">
      <route edges="YB_C YB_C1 YB_F"/>
   </vehicle>
   <vehicle depart="33.00" id="21639" type="veh1">
      <route edges="YB_G KL_G1"/>
   </vehicle>
   <vehicle depart="34.00" id="15075" type="veh1">
      <route edges="GH_A1 GH_B1 KL_C1"/>
   </vehicle>
   <vehicle depart="34.00" id="21519" type="veh1">
      <route edges="YB_C YB_C1 YB_E2 KL_G1"/>
   </vehicle>
   <vehicle depart="34.00" id="21551" type="veh1">
      <route edges="YB_C YB_C1 YB_E2 YB_G1 YB_B"/>
   </vehicle>
   <vehicle depart="35.00" id="12031" type="veh1">
      <route edges="KC_A1 KC_B"/>
   </vehicle>
   <vehicle depart="35.00" id="15231" type="veh1">
      <route edges="GH_C GH_C2 GH_F"/>
   </vehicle>
   <vehicle depart="35.00" id="15235" type="veh1">
      <route edges="GH_C GH_C2 GH_H1 GH_H2"/>
   </vehicle>
   <vehicle depart="35.00" id="15305" type="veh1">
      <route edges="GH_E GH_F"/>
   </vehicle>
   <vehicle depart="35.00" id="18184" type="veh1">
      <route edges="KL_E1 KL_E2 YB_A2 YB_A1 KC_E1 KC_E2 KC_G1 KC_B"/>
   </vehicle>
   <vehicle depart="35.00" id="21536" type="veh1">
      <route edges="YB_C YB_C1 YB_E2 KL_G1 KL_G2 KL_C2 KL_D"/>
   </vehicle>
   <vehicle depart="35.00" id="21649" type="veh1">
      <route edges="YB_G KL_G1"/>
   </vehicle>
   <vehicle depart="35.00" id="24141" type="veh1">
      <route edges="KC_C KC_C1 KC_E2 KC_H"/>
   </vehicle>
   <vehicle depart="36.00" id="112" type="veh1">
      <route edges="GH_G GH_G2 GH_G3 GH_B2 KL_C1 KL_C2 KL_E2 YB_A2 YB_A1 KC_E1 KC_E2 KC_H"/>
   </vehicle>
   <vehicle depart="36.00" id="8699" type="veh1">
      <route edges="YB_C YB_C1 YB_E2 YB_G1 YB_B"/>
   </vehicle>
   <vehicle depart="36.00" id="12039" type="veh1">
      <route edges="KC_A1 KC_A2 YB_E1 YB_E2 KL_G1 KL_G2 GH_C GH_C2 GH_F"/>
   </vehicle>
   <vehicle depart="36.00" id="15088" type="veh1">
      <route edges="GH_A1 GH_B1 KL_C1 KL_C2 KL_D"/>
   </vehicle>
   <vehicle depart="37.00" id="15397" type="veh1">
      <route edges="GH_G GH_G2 GH_G3 GH_B2 KL_C1 KL_C2 KL_D"/>
   </vehicle>
   <vehicle depart="37.00" id="21456" type="veh1">
      <route edges="YB_A2 YB_A1 KC_E1 KC_E2 KC_H"/>
   </vehicle>
   <vehicle depart="38.00" id="21467" type="veh1">
      <route edges="YB_A2 YB_A1 KC_E1 KC_E2 KC_H"/>
   </vehicle>
   <vehicle depart="38.00" id="21609" type="veh1">
      <route edges="YB_E1 YB_E2 KL_G1"/>
   </vehicle>
   <vehicle depart="39.00" id="8684" type="veh1">
      <route edges="YB_C YB_C1 YB_F"/>
   </vehicle>
   <vehicle depart="39.00" id="12064" type="veh1">
      <route edges="KC_A1 KC_A2 YB_E1 YB_E2 KL_G1"/>
   </vehicle>
   <vehicle depart="39.00" id="15131" type="veh1">
      <route edges="GH_A1 GH_A2 GH_C2 GH_F"/>
   </vehicle>
   <vehicle depart="39.00" id="15249" type="veh1">
      <route edges="GH_C GH_C2 GH_H1 GH_H2"/>
   </vehicle>
   <vehicle depart="39.00" id="15387" type="veh1">
      <route edges="GH_G GH_G2 GH_G3 GH_B2 KL_C1"/>
   </vehicle>
   <vehicle depart="39.00" id="21463" type="veh1">
      <route edges="YB_A2 YB_A1 KC_E1 KC_E2 KC_H"/>
   </vehicle>
   <vehicle depart="39.00" id="21540" type="veh1">
      <route edges="YB_C YB_C1 YB_E2 KL_G1 KL_G2 GH_C"/>
   </vehicle>
   <vehicle depart="40.00" id="21596" type="veh1">
      <route edges="YB_E1 YB_E2 KL_G1"/>
   </vehicle>
   <vehicle depart="41.00" id="8721" type="veh1">
      <route edges="YB_E1 YB_E2 KL_G1 KL_G2 KL_C2 KL_D"/>
   </vehicle>
   <vehicle depart="42.00" id="102" type="veh1">
      <route edges="GH_E GH_G3 GH_B2 KL_C1 KL_C2 KL_D"/>
   </vehicle>
   <vehicle depart="42.00" id="120" type="veh1">
      <route edges="GH_G GH_G2 GH_G3 GH_B2 KL_C1 KL_C2 KL_E2 YB_A2 YB_A1 KC_E1 KC_E2 KC_H"/>
   </vehicle>
   <vehicle depart="42.00" id="15357" type="veh1">
      <route edges="GH_G GH_G2 GH_G3 GH_B2 KL_C1"/>
   </vehicle>
   <vehicle depart="42.00" id="21650" type="veh1">
      <route edges="YB_G KL_G1 KL_G2 KL_C2 KL_D"/>
   </vehicle>
   <vehicle depart="42.00" id="21657" type="veh1">
      <route edges="YB_G YB_G1 YB_B"/>
   </vehicle>
   <vehicle depart="42.00" id="24061" type="veh1">
      <route edges="KC_A1 KC_B"/>
   </vehicle>
   <vehicle depart="43.00" id="21669" type="veh1">
      <route edges="YB_G YB_G1 YB_A1 KC_E1 KC_F"/>
   </vehicle>
   <vehicle depart="43.00" id="24050" type="veh1">
      <route edges="KC_A1 KC_B"/>
   </vehicle>
   <vehicle depart="43.00" id="24197" type="veh1">
      <route edges="KC_G KC_H"/>
   </vehicle>
   <vehicle depart="44.00" id="15410" type="veh1">
      <route edges="GH_G GH_G2 GH_G3 GH_B2 KL_C1"/>
   </vehicle>
   <vehicle depart="44.00" id="15416" type="veh1">
      <route edges="GH_G GH_G2 GH_G3 GH_B2 KL_C1"/>
   </vehicle>
   <vehicle depart="44.00" id="18195" type="veh1">
      <route edges="KL_E1 KL_E2 YB_A2 YB_A1 KC_E1"/>
   </vehicle>
   <vehicle depart="45.00" id="128" type="veh1">
      <route edges="GH_G GH_G2 GH_G3 GH_B2 KL_C1 KL_C2 KL_E2 YB_A2 YB_A1 KC_E1 KC_F"/>
   </vehicle>
   <vehicle depart="45.00" id="15114" type="veh1">
      <route edges="GH_A1 GH_B1 KL_C1 KL_C2 KL_E2 YB_A2"/>
   </vehicle>
   <vehicle depart="46.00" id="8691" type="veh1">
      <route edges="YB_C YB_C1 YB_E2 KL_G1 KL_G2 GH_C GH_C2 GH_H1 GH_H2"/>
   </vehicle>
   <vehicle depart="46.00" id="21517" type="veh1">
      <route edges="YB_C YB_C1 YB_E2 KL_G1 KL_G2 GH_C GH_C2 GH_H1 GH_H2"/>
   </vehicle>
   <vehicle depart="47.00" id="21505" type="veh1">
      <route edges="YB_C YB_C1 YB_F"/>
   </vehicle>
   <vehicle depart="48.00" id="12069" type="veh1">
      <route edges="KC_A1 KC_A2 YB_E1 YB_F"/>
   </vehicle>
   <vehicle depart="49.00" id="18186" type="veh1">
      <route edges="KL_E1 KL_E2 YB_A2 YB_A1 YB_C1 YB_F"/>
   </vehicle>
   <vehicle depart="49.00" id="21498" type="veh1">
      <route edges="YB_C KC_E1 KC_E2 KC_G1 KC_B"/>
   </vehicle>
   <vehicle depart="50.00" id="15400" type="veh1">
      <route edges="GH_G GH_G2 GH_G3 GH_B2 KL_C1"/>
   </vehicle>
   <vehicle depart="50.00" id="18225" type="veh1">
      <route edges="KL_E1 KL_E2 YB_A2"/>
   </vehicle>
   <vehicle depart="51.00" id="18205" type="veh1">
      <route edges="KL_E1 KL_E2 YB_A2 YB_A1 KC_E1 KC_E2 KC_G1 KC_B"/>
   </vehicle>
   <vehicle depart="51.00" id="24099" type="veh1">
      <route edges="KC_A1 KC_A2 YB_E1 YB_E2 KL_G1 KL_G2 KL_C2 KL_D"/>
   </vehicle>
   <vehicle depart="51.00" id="24117" type="veh1">
      <route edges="KC_A1 KC_A2 YB_E1 YB_E2 KL_G1 KL_G2 GH_C GH_C2 GH_F"/>
   </vehicle>
   <vehicle depart="52.00" id="21522" type="veh1">
      <route edges="YB_C YB_C1 YB_E2 KL_G1 KL_G2 GH_C GH_C2 GH_F"/>
   </vehicle>
   <vehicle depart="53.00" id="4468" type="veh1">
      <route edges="KL_E1 KL_E2 YB_A2 YB_A1 KC_E1 KC_E2 KC_H"/>
   </vehicle>
   <vehicle depart="53.00" id="15432" type="veh1">
      <route edges="GH_G GH_G2 GH_G3 GH_B2 KL_C1"/>
   </vehicle>
   <vehicle depart="54.00" id="4443" type="veh1">
      <route edges="KL_E1 KL_E2 YB_A2 YB_A1 KC_E1 KC_E2 KC_H"/>
   </vehicle>
   <vehicle depart="54.00" id="18377" type="veh1">
      <route edges="KL_G1 KL_G2 KL_C2 KL_D"/>
   </vehicle>
   <vehicle depart="54.00" id="21634" type="veh1">
      <route edges="YB_G KL_G1 KL_G2 GH_C"/>
   </vehicle>
   <vehicle depart="55.00" id="109" type="veh1">
      <route edges="GH_G GH_G2 GH_G3 GH_B2 KL_C1 KL_C2 KL_D"/>
   </vehicle>
   <vehicle depart="55.00" id="18213" type="veh1">
      <route edges="KL_E1 KL_E2 YB_A2"/>
   </vehicle>
   <vehicle depart="55.00" id="18231" type="veh1">
      <route edges="KL_E1 KL_E2 KL_G2 GH_C GH_C2 GH_H1 GH_H2"/>
   </vehicle>
   <vehicle depart="56.00" id="4480" type="veh1">
      <route edges="KL_E1 KL_E2 KL_G2 GH_C GH_C2 GH_H1 GH_H2"/>
   </vehicle>
   <vehicle depart="56.00" id="21603" type="veh1">
      <route edges="YB_E1 YB_E2 KL_G1 KL_G2 GH_C"/>
   </vehicle>
   <vehicle depart="58.00" id="21599" type="veh1">
      <route edges="YB_E1 YB_E2 KL_G1 KL_G2 GH_C"/>
   </vehicle>
   <vehicle depart="59.00" id="15351" type="veh1">
      <route edges="GH_G GH_G2 GH_G3 GH_B2 KL_C1 KL_C2 KL_E2 YB_A2 YB_A1 YB_C1 YB_F"/>
   </vehicle>
   <vehicle depart="59.00" id="18177" type="veh1">
      <route edges="KL_E1 KL_E2 YB_A2 YB_A1 KC_E1 KC_E2 KC_H"/>
   </vehicle>
   <vehicle depart="59.00" id="18238" type="veh1">
      <route edges="KL_E1 KL_E2 KL_G2 GH_C GH_C2 GH_H1 GH_H2"/>
   </vehicle>
   <vehicle depart="59.00" id="18352" type="veh1">
      <route edges="KL_G1 KL_G2 KL_C2 KL_D"/>
   </vehicle>
   <vehicle depart="59.00" id="24106" type="veh1">
      <route edges="KC_A1 KC_A2 YB_E1 YB_E2 YB_G1 YB_A1 KC_E1"/>
   </vehicle>
   <vehicle depart="60.00" id="15109" type="veh1">
      <route edges="GH_A1 GH_B1 KL_C1 KL_C2 KL_D"/>
   </vehicle>
   <vehicle depart="60.00" id="15354" type="veh1">
      <route edges="GH_G GH_G2 GH_G3 GH_B2 KL_C1"/>
   </vehicle>
   <vehicle depart="60.00" id="15378" type="veh1">
      <route edges="GH_G GH_G2 GH_G3 GH_B2 KL_C1"/>
   </vehicle>
   <vehicle depart="60.00" id="18210" type="veh1">
      <route edges="KL_E1 KL_E2 YB_A2 YB_A1 YB_C1 YB_F"/>
   </vehicle>
   <vehicle depart="60.00" id="18227" type="veh1">
      <route edges="KL_E1 KL_E2 KL_G2 GH_C"/>
   </vehicle>
   <vehicle depart="60.00" id="24059" type="veh1">
      <route edges="KC_A1 KC_B"/>
   </vehicle>
   <vehicle depart="61.00" id="8737" type="veh1">
      <route edges="YB_G YB_G1 YB_A1 KC_E1 KC_E2 KC_H"/>
   </vehicle>
   <vehicle depart="61.00" id="21617" type="veh1">
      <route edges="YB_E1 YB_E2 KL_G1 KL_G2 KL_C2 KL_D"/>
   </vehicle>
   <vehicle depart="62.00" id="12075" type="veh1">
      <route edges="KC_A1 KC_A2 YB_E1 YB_E2 YB_G1 YB_B"/>
   </vehicle>
   <vehicle depart="62.00" id="15096" type="veh1">
      <route edges="GH_A1 GH_B1 KL_C1 KL_C2 KL_D"/>
   </vehicle>
   <vehicle depart="62.00" id="18343" type="veh1">
      <route edges="KL_G1 KL_G2 KL_C2 KL_D"/>
   </vehicle>
   <vehicle depart="62.00" id="24100" type="veh1">
      <route edges="KC_A1 KC_A2 YB_E1"/>
   </vehicle>
   <vehicle depart="63.00" id="15350" type="veh1">
      <route edges="GH_G GH_G1 GH_H2"/>
   </vehicle>
   <vehicle depart="64.00" id="4464" type="veh1">
      <route edges="KL_E1 KL_E2 YB_A2 YB_A1 YB_C1 YB_F"/>
   </vehicle>
   <vehicle depart="65.00" id="21516" type="veh1">
      <route edges="YB_C YB_C1 YB_E2 KL_G1 KL_G2 GH_C GH_C2 GH_F"/>
   </vehicle>
   <vehicle depart="65.00" id="24122" type="veh1">
      <route edges="KC_A1 KC_A2 YB_E1"/>
   </vehicle>
   <vehicle depart="67.00" id="12051" type="veh1">
      <route edges="KC_A1 KC_A2 YB_E1 YB_E2 KL_G1 KL_G2 KL_C2 KL_D"/>
   </vehicle>
   <vehicle depart="67.00" id="18212" type="veh1">
      <route edges="KL_E1 KL_E2 YB_A2"/>
   </vehicle>
   <vehicle depart="68.00" id="15" type="veh1">
      <route edges="GH_A1 GH_B1 KL_C1 KL_C2 KL_E2 YB_A2"/>
   </vehicle>
   <vehicle depart="68.00" id="4473" type="veh1">
      <route edges="KL_E1 KL_E2 YB_A2 YB_A1 KC_E1"/>
   </vehicle>
   <vehicle depart="68.00" id="12045" type="veh1">
      <route edges="KC_A1 KC_A2 YB_E1 YB_E2 KL_G1"/>
   </vehicle>
   <vehicle depart="68.00" id="15437" type="veh1">
      <route edges="GH_G GH_G2 GH_G3 GH_B2 KL_C1"/>
   </vehicle>
   <vehicle depart="68.00" id="24111" type="veh1">
      <route edges="KC_A1 KC_A2 YB_E1"/>
   </vehicle>
   <vehicle depart="68.00" id="24199" type="veh1">
      <route edges="KC_G KC_G1 KC_B"/>
   </vehicle>
   <vehicle depart="69.00" id="15384" type="veh1">
      <route edges="GH_G GH_G2 GH_G3 GH_B2 KL_C1"/>
   </vehicle>
   <vehicle depart="69.00" id="15393" type="veh1">
      <route edges="GH_G GH_G2 GH_G3 GH_B2 KL_C1"/>
   </vehicle>
   <vehicle depart="69.00" id="24208" type="veh1">
      <route edges="KC_G KC_G1 KC_A2 YB_E1"/>
   </vehicle>
   <vehicle depart="70.00" id="9" type="veh1">
      <route edges="GH_A1 GH_B1 KL_C1"/>
   </vehicle>
   <vehicle depart="70.00" id="12072" type="veh1">
      <route edges="KC_A1 KC_A2 YB_E1"/>
   </vehicle>
   <vehicle depart="70.00" id="24209" type="veh1">
      <route edges="KC_G KC_G1 KC_A2 YB_E1"/>
   </vehicle>
   <vehicle depart="71.00" id="8693" type="veh1">
      <route edges="YB_C YB_C1 YB_E2 KL_G1 KL_G2 GH_C GH_C2 GH_F"/>
   </vehicle>
   <vehicle depart="71.00" id="18193" type="veh1">
      <route edges="KL_E1 KL_E2 YB_A2"/>
   </vehicle>
   <vehicle depart="72.00" id="15297" type="veh1">
      <route edges="GH_E GH_F"/>
   </vehicle>
   <vehicle depart="72.00" id="18239" type="veh1">
      <route edges="KL_E1 KL_E2 KL_G2 GH_C GH_C2 GH_H1 GH_H2"/>
   </vehicle>
   <vehicle depart="72.00" id="21644" type="veh1">
      <route edges="YB_G KL_G1 KL_G2 GH_C GH_C2 GH_F"/>
   </vehicle>
   <vehicle depart="73.00" id="21494" type="veh1">
      <route edges="YB_C KC_E1 KC_E2 KC_H"/>
   </vehicle>
   <vehicle depart="74.00" id="8735" type="veh1">
      <route edges="YB_G KL_G1 KL_G2 GH_C GH_C2 GH_F"/>
   </vehicle>
   <vehicle depart="74.00" id="21530" type="veh1">
      <route edges="YB_C YB_C1 YB_E2 KL_G1 KL_G2 GH_C"/>
   </vehicle>
   <vehicle depart="75.00" id="124" type="veh1">
      <route edges="GH_G GH_G2 GH_G3 GH_B2 KL_C1 KL_C2 KL_D"/>
   </vehicle>
   <vehicle depart="75.00" id="8697" type="veh1">
      <route edges="YB_C YB_C1 YB_E2 KL_G1 KL_G2 KL_C2 KL_D"/>
   </vehicle>
   <vehicle depart="75.00" id="15073" type="veh1">
      <route edges="GH_A1 GH_B1 KL_C1"/>
   </vehicle>
   <vehicle depart="75.00" id="15343" type="veh1">
      <route edges="GH_G GH_G1 GH_H2"/>
   </vehicle>
   <vehicle depart="75.00" id="15430" type="veh1">
      <route edges="GH_G GH_G2 GH_G3 GH_B2 KL_C1"/>
   </vehicle>
   <vehicle depart="76.00" id="4439" type="veh1">
      <route edges="KL_E1 KL_E2 YB_A2 YB_A1 YB_C1 YB_F"/>
   </vehicle>
   <vehicle depart="76.00" id="21534" type="veh1">
      <route edges="YB_C YB_C1 YB_E2 KL_G1 KL_G2 GH_C"/>
   </vehicle>
   <vehicle depart="76.00" id="21652" type="veh1">
      <route edges="YB_G KL_G1 KL_G2 GH_C GH_C2 GH_H1 GH_H2"/>
   </vehicle>
   <vehicle depart="76.00" id="24078" type="veh1">
      <route edges="KC_A1 KC_A2 YB_E1 YB_E2 KL_G1 KL_G2 GH_C GH_C2 GH_H1 GH_H2"/>
   </vehicle>
   <vehicle depart="77.00" id="125" type="veh1">
      <route edges="GH_G GH_G2 GH_G3 GH_B2 KL_C1 KL_C2 KL_E2 YB_A2"/>
   </vehicle>
   <vehicle depart="77.00" id="12032" type="veh1">
      <route edges="KC_A1 KC_B"/>
   </vehicle>
   <vehicle depart="77.00" id="15118" type="veh1">
      <route edges="GH_A1 GH_B1 KL_C1"/>
   </vehicle>
   <vehicle depart="77.00" id="24115" type="veh1">
      <route edges="KC_A1 KC_A2 YB_E1 YB_E2 YB_G1 YB_B"/>
   </vehicle>
   <vehicle depart="78.00" id="98" type="veh1">
      <route edges="GH_E GH_H1 GH_H2"/>
   </vehicle>
   <vehicle depart="78.00" id="18172" type="veh1">
      <route edges="KL_E1 KL_E2 YB_A2"/>
   </vehicle>
   <vehicle depart="79.00" id="99" type="veh1">
      <route edges="GH_E GH_H1 GH_H2"/>
   </vehicle>
   <vehicle depart="80.00" id="18198" type="veh1">
      <route edges="KL_E1 KL_E2 YB_A2"/>
   </vehicle>
   <vehicle depart="80.00" id="18330" type="veh1">
      <route edges="KL_G1 KL_G2 KL_C2 KL_D"/>
   </vehicle>
   <vehicle depart="80.00" id="24087" type="veh1">
      <route edges="KC_A1 KC_A2 YB_E1 YB_E2 KL_G1 KL_G2 GH_C GH_C2 GH_H1 GH_H2"/>
   </vehicle>
   <vehicle depart="82.00" id="29" type="veh1">
      <route edges="GH_A1 GH_B1 KL_C1 KL_C2 KL_E2 YB_A2"/>
   </vehicle>
   <vehicle depart="82.00" id="34" type="veh1">
      <route edges="GH_A1 GH_A2 GH_C2 GH_F"/>
   </vehicle>
   <vehicle depart="82.00" id="18250" type="veh1">
      <route edges="KL_E1 KL_E2 KL_G2 GH_C GH_C2 GH_F"/>
   </vehicle>
   <vehicle depart="83.00" id="15304" type="veh1">
      <route edges="GH_E GH_F"/>
   </vehicle>
   <vehicle depart="83.00" id="18178" type="veh1">
      <route edges="KL_E1 KL_E2 YB_A2"/>
   </vehicle>
   <vehicle depart="83.00" id="24121" type="veh1">
      <route edges="KC_A1 KC_A2 YB_E1"/>
   </vehicle>
   <vehicle depart="83.00" id="24132" type="veh1">
      <route edges="KC_C YB_E1"/>
   </vehicle>
   <vehicle depart="84.00" id="15328" type="veh1">
      <route edges="GH_G GH_G1 GH_H2"/>
   </vehicle>
   <vehicle depart="84.00" id="15421" type="veh1">
      <route edges="GH_G GH_G2 GH_G3 GH_B2 KL_C1 KL_C2 KL_E2 YB_A2"/>
   </vehicle>
   <vehicle depart="84.00" id="18340" type="veh1">
      <route edges="KL_G1 KL_G2 KL_C2 KL_D"/>
   </vehicle>
   <vehicle depart="84.00" id="24119" type="veh1">
      <route edges="KC_A1 KC_A2 YB_E1"/>
   </vehicle>
   <vehicle depart="85.00" id="4438" type="veh1">
      <route edges="KL_E1 KL_E2 YB_A2"/>
   </vehicle>
   <vehicle depart="85.00" id="21630" type="veh1">
      <route edges="YB_E1 YB_E2 YB_G1 YB_A1 KC_E1 KC_E2 KC_H"/>
   </vehicle>
   <vehicle depart="86.00" id="4447" type="veh1">
      <route edges="KL_E1 KL_E2 YB_A2"/>
   </vehicle>
   <vehicle depart="86.00" id="12073" type="veh1">
      <route edges="KC_A1 KC_A2 YB_E1 YB_E2 KL_G1 KL_G2 KL_C2 KL_D"/>
   </vehicle>
   <vehicle depart="87.00" id="18348" type="veh1">
      <route edges="KL_G1 KL_G2 KL_C2 KL_D"/>
   </vehicle>
   <vehicle depart="87.00" id="18386" type="veh1">
      <route edges="KL_G1 KL_G2 KL_C2 KL_E2 YB_A2 YB_A1 YB_C1 YB_F"/>
   </vehicle>
   <vehicle depart="87.00" id="24056" type="veh1">
      <route edges="KC_A1 KC_B"/>
   </vehicle>
   <vehicle depart="88.00" id="30" type="veh1">
      <route edges="GH_A1 GH_A2 GH_C2 GH_F"/>
   </vehicle>
   <vehicle depart="88.00" id="15306" type="veh1">
      <route edges="GH_E GH_F"/>
   </vehicle>
   <vehicle depart="88.00" id="18190" type="veh1">
      <route edges="KL_E1 KL_E2 YB_A2 YB_A1 KC_E1"/>
   </vehicle>
   <vehicle depart="89.00" id="18236" type="veh1">
      <route edges="KL_E1 KL_E2 KL_G2 GH_C GH_C2 GH_F"/>
   </vehicle>
   <vehicle depart="90.00" id="15093" type="veh1">
      <route edges="GH_A1 GH_B1 KL_C1"/>
   </vehicle>
   <vehicle depart="90.00" id="15318" type="veh1">
      <route edges="GH_E GH_H1 GH_H2"/>
   </vehicle>
   <vehicle depart="90.00" id="15424" type="veh1">
      <route edges="GH_G GH_G2 GH_G3 GH_B2 KL_C1"/>
   </vehicle>
   <vehicle depart="90.00" id="21531" type="veh1">
      <route edges="YB_C YB_C1 YB_E2 KL_G1 KL_G2 GH_C GH_C2 GH_F"/>
   </vehicle>
   <vehicle depart="90.00" id="24203" type="veh1">
      <route edges="KC_G KC_G1 KC_B"/>
   </vehicle>
   <vehicle depart="91.00" id="8689" type="veh1">
      <route edges="YB_C YB_C1 YB_F"/>
   </vehicle>
   <vehicle depart="91.00" id="15308" type="veh1">
      <route edges="GH_E GH_F"/>
   </vehicle>
   <vehicle depart="91.00" id="18202" type="veh1">
      <route edges="KL_E1 KL_E2 YB_A2 YB_A1 KC_E1"/>
   </vehicle>
   <vehicle depart="91.00" id="18307" type="veh1">
      <route edges="KL_G1 KL_G2 GH_C GH_C2 GH_F"/>