<?xml version="1.0" ?>
<routes xmlns:xsi="http://www.w3.org/2001/XMLSchema-instance" xsi:noNamespaceSchemaLocation="http://sumo.dlr.de/xsd/routes_file.xsd">
   <vType id="veh1" laneChangeModel="LC2013" lcCooperative="5.0" lcKeepRight="3.0" lcSpeedGain="5.0" lcStrategic="10.0" length="4.00" maxSpeed="55.00" minGap="1.50" vClass="passenger"/>
   <vehicle depart="0.00" id="143" type="veh1">
      <route edges="GH_C GH_C2 GH_F"/>
   </vehicle>
   <vehicle depart="1.00" id="176" type="veh1">
      <route edges="GH_C GH_C2 GH_H1 GH_H2"/>
   </vehicle>
   <vehicle depart="1.00" id="3092" type="veh1">
      <route edges="KL_C1 KL_C2 KL_E2 YB_A2"/>
   </vehicle>
   <vehicle depart="1.00" id="3149" type="veh1">
      <route edges="KL_E1 KL_E2 YB_A2"/>
   </vehicle>
   <vehicle depart="1.00" id="3256" type="veh1">
      <route edges="KL_G1 KL_G2 KL_C2 KL_D"/>
   </vehicle>
   <vehicle depart="1.00" id="3283" type="veh1">
      <route edges="KL_G1 KL_G2 KL_C2 KL_D"/>
   </vehicle>
   <vehicle depart="1.00" id="6476" type="veh1">
      <route edges="YB_C YB_C1 YB_E2 YB_G1 YB_B"/>
   </vehicle>
   <vehicle depart="1.00" id="6533" type="veh1">
      <route edges="YB_E1 YB_E2 KL_G1"/>
   </vehicle>
   <vehicle depart="2.00" id="305" type="veh1">
      <route edges="GH_G GH_G2 GH_G3 GH_B2 KL_C1"/>
   </vehicle>
   <vehicle depart="2.00" id="3066" type="veh1">
      <route edges="KL_C1 KL_C2 KL_E2 YB_A2"/>
   </vehicle>
   <vehicle depart="2.00" id="6424" type="veh1">
      <route edges="YB_A2 YB_A1 YB_C1 YB_E2 KL_G1"/>
   </vehicle>
   <vehicle depart="2.00" id="6592" type="veh1">
      <route edges="YB_G YB_G1 YB_A1 KC_E1"/>
   </vehicle>
   <vehicle depart="2.00" id="6604" type="veh1">
      <route edges="YB_G YB_G1 YB_A1 YB_C1 YB_F"/>
   </vehicle>
   <vehicle depart="2.00" id="9037" type="veh1">
      <route edges="KC_A1 KC_A2 YB_E1"/>
   </vehicle>
   <vehicle depart="3.00" id="3221" type="veh1">
      <route edges="KL_G1 KL_G2 GH_C"/>
   </vehicle>
   <vehicle depart="3.00" id="3250" type="veh1">
      <route edges="KL_G1 KL_G2 KL_C2 KL_D"/>
   </vehicle>
   <vehicle depart="3.00" id="6431" type="veh1">
      <route edges="YB_C YB_C1 YB_F"/>
   </vehicle>
   <vehicle depart="3.00" id="6432" type="veh1">
      <route edges="YB_C YB_C1 YB_F"/>
   </vehicle>
   <vehicle depart="3.00" id="6502" type="veh1">
      <route edges="YB_E1 YB_E2 KL_G1"/>
   </vehicle>
   <vehicle depart="4.00" id="9064" type="veh1">
      <route edges="KC_C YB_E1"/>
   </vehicle>
   <vehicle depart="5.00" id="122" type="veh1">
      <route edges="GH_C GH_C2 GH_F"/>
   </vehicle>
   <vehicle depart="5.00" id="8985" type="veh1">
      <route edges="KC_A1 KC_B"/>
   </vehicle>
   <vehicle depart="6.00" id="31" type="veh1">
      <route edges="GH_A1 GH_B1 KL_C1"/>
   </vehicle>
   <vehicle depart="6.00" id="198" type="veh1">
      <route edges="GH_C GH_C2 GH_H1 GH_H2"/>
   </vehicle>
   <vehicle depart="6.00" id="3094" type="veh1">
      <route edges="KL_C1 KL_C2 KL_E2 YB_A2"/>
   </vehicle>
   <vehicle depart="6.00" id="3123" type="veh1">
      <route edges="KL_E1 KL_E2 YB_A2"/>
   </vehicle>
   <vehicle depart="6.00" id="3313" type="veh1">
      <route edges="KL_G1 KL_G2 KL_C2 KL_D"/>
   </vehicle>
   <vehicle depart="6.00" id="6425" type="veh1">
      <route edges="YB_A2 YB_A1 YB_C1 YB_E2 KL_G1"/>
   </vehicle>
   <vehicle depart="6.00" id="6581" type="veh1">
      <route edges="YB_G KL_G1"/>
   </vehicle>
   <vehicle depart="7.00" id="6382" type="veh1">
      <route edges="YB_A2 YB_A1 KC_E1"/>
   </vehicle>
   <vehicle depart="8.00" id="43" type="veh1">
      <route edges="GH_A1 GH_B1 KL_C1"/>
   </vehicle>
   <vehicle depart="9.00" id="3040" type="veh1">
      <route edges="KL_C1 KL_C2 KL_D"/>
   </vehicle>
   <vehicle depart="9.00" id="3098" type="veh1">
      <route edges="KL_E1 KL_E2 YB_A2"/>
   </vehicle>
   <vehicle depart="9.00" id="6587" type="veh1">
      <route edges="YB_G YB_G1 YB_B"/>
   </vehicle>
   <vehicle depart="10.00" id="3279" type="veh1">
      <route edges="KL_G1 KL_G2 KL_C2 KL_D"/>
   </vehicle>
   <vehicle depart="10.00" id="6452" type="veh1">
      <route edges="YB_C YB_C1 YB_E2 KL_G1"/>
   </vehicle>
   <vehicle depart="10.00" id="6559" type="veh1">
      <route edges="YB_E1 YB_E2 YB_G1 YB_B"/>
   </vehicle>
   <vehicle depart="11.00" id="6482" type="veh1">
      <route edges="YB_C YB_C1 YB_E2 YB_G1 YB_B"/>
   </vehicle>
   <vehicle depart="12.00" id="6430" type="veh1">
      <route edges="YB_C KC_E1"/>
   </vehicle>
   <vehicle depart="13.00" id="3137" type="veh1">
      <route edges="KL_E1 KL_E2 YB_A2"/>
   </vehicle>
   <vehicle depart="13.00" id="6534" type="veh1">
      <route edges="YB_E1 YB_E2 KL_G1"/>
   </vehicle>
   <vehicle depart="14.00" id="3305" type="veh1">
      <route edges="KL_G1 KL_G2 KL_C2 KL_D"/>
   </vehicle>
   <vehicle depart="15.00" id="211" type="veh1">
      <route edges="GH_C GH_C2 GH_H1 GH_H2"/>
   </vehicle>
   <vehicle depart="15.00" id="267" type="veh1">
      <route edges="GH_G GH_G1 GH_H2"/>
   </vehicle>
   <vehicle depart="16.00" id="260" type="veh1">
      <route edges="GH_G GH_G1 GH_H2"/>
   </vehicle>
   <vehicle depart="16.00" id="3091" type="veh1">
      <route edges="KL_C1 KL_C2 KL_E2 YB_A2"/>
   </vehicle>
   <vehicle depart="16.00" id="3297" type="veh1">
      <route edges="KL_G1 KL_G2 KL_C2 KL_D"/>
   </vehicle>
   <vehicle depart="16.00" id="6394" type="veh1">
      <route edges="YB_A2 YB_A1 KC_E1"/>
   </vehicle>
   <vehicle depart="17.00" id="144" type="veh1">
      <route edges="GH_C GH_C2 GH_F"/>
   </vehicle>
   <vehicle depart="17.00" id="3122" type="veh1">
      <route edges="KL_E1 KL_E2 YB_A2"/>
   </vehicle>
   <vehicle depart="17.00" id="6589" type="veh1">
      <route edges="YB_G YB_G1 YB_B"/>
   </vehicle>
   <vehicle depart="18.00" id="209" type="veh1">
      <route edges="GH_C GH_C2 GH_H1 GH_H2"/>
   </vehicle>
   <vehicle depart="18.00" id="259" type="veh1">
      <route edges="GH_G GH_G1 GH_H2"/>
   </vehicle>
   <vehicle depart="18.00" id="280" type="veh1">
      <route edges="GH_G GH_G1 GH_H2"/>
   </vehicle>
   <vehicle depart="18.00" id="3163" type="veh1">
      <route edges="KL_E1 KL_E2 KL_G2 GH_C"/>
   </vehicle>
   <vehicle depart="18.00" id="3217" type="veh1">
      <route edges="KL_G1 KL_G2 GH_C"/>
   </vehicle>
   <vehicle depart="18.00" id="6547" type="veh1">
      <route edges="YB_E1 YB_E2 KL_G1"/>
   </vehicle>
   <vehicle depart="18.00" id="9013" type="veh1">
      <route edges="KC_A1 KC_A2 YB_E1"/>
   </vehicle>
   <vehicle depart="18.00" id="9029" type="veh1">
      <route edges="KC_A1 KC_A2 YB_E1"/>
   </vehicle>
   <vehicle depart="19.00" id="3166" type="veh1">
      <route edges="KL_E1 KL_E2 KL_G2 GH_C"/>
   </vehicle>
   <vehicle depart="19.00" id="3181" type="veh1">
      <route edges="KL_E1 KL_E2 KL_G2 GH_C"/>
   </vehicle>
   <vehicle depart="20.00" id="335" type="veh1">
      <route edges="GH_G GH_G2 GH_G3 GH_B2 KL_C1"/>
   </vehicle>
   <vehicle depart="20.00" id="6368" type="veh1">
      <route edges="YB_A2 YB_A1 KC_E1"/>
   </vehicle>
   <vehicle depart="20.00" id="6532" type="veh1">
      <route edges="YB_E1 YB_E2 KL_G1"/>
   </vehicle>
   <vehicle depart="20.00" id="6566" type="veh1">
      <route edges="YB_G KL_G1"/>
   </vehicle>
   <vehicle depart="21.00" id="3140" type="veh1">
      <route edges="KL_E1 KL_E2 YB_A2"/>
   </vehicle>
   <vehicle depart="21.00" id="3150" type="veh1">
      <route edges="KL_E1 KL_E2 YB_A2"/>
   </vehicle>
   <vehicle depart="21.00" id="6385" type="veh1">
      <route edges="YB_A2 YB_A1 KC_E1"/>
   </vehicle>
   <vehicle depart="21.00" id="6469" type="veh1">
      <route edges="YB_C YB_C1 YB_E2 KL_G1"/>
   </vehicle>
   <vehicle depart="22.00" id="6563" type="veh1">
      <route edges="YB_E1 YB_E2 YB_G1 YB_A1 KC_E1"/>
   </vehicle>
   <vehicle depart="23.00" id="165" type="veh1">
      <route edges="GH_C GH_C2 GH_H1 GH_H2"/>
   </vehicle>
   <vehicle depart="23.00" id="3076" type="veh1">
      <route edges="KL_C1 KL_C2 KL_E2 YB_A2"/>
   </vehicle>
   <vehicle depart="23.00" id="3108" type="veh1">
      <route edges="KL_E1 KL_E2 YB_A2"/>
   </vehicle>
   <vehicle depart="23.00" id="6435" type="veh1">
      <route edges="YB_C YB_C1 YB_F"/>
   </vehicle>
   <vehicle depart="23.00" id="9112" type="veh1">
      <route edges="KC_E1 KC_E2 KC_H"/>
   </vehicle>
   <vehicle depart="24.00" id="228" type="veh1">
      <route edges="GH_C GH_B2 KL_C1"/>
   </vehicle>
   <vehicle depart="24.00" id="6487" type="veh1">
      <route edges="YB_E1 YB_F"/>
   </vehicle>
   <vehicle depart="24.00" id="9006" type="veh1">
      <route edges="KC_A1 KC_B"/>
   </vehicle>
   <vehicle depart="25.00" id="130" type="veh1">
      <route edges="GH_C GH_C2 GH_F"/>
   </vehicle>
   <vehicle depart="25.00" id="264" type="veh1">
      <route edges="GH_G GH_G1 GH_H2"/>
   </vehicle>
   <vehicle depart="25.00" id="3139" type="veh1">
      <route edges="KL_E1 KL_E2 YB_A2"/>
   </vehicle>
   <vehicle depart="25.00" id="6439" type="veh1">
      <route edges="YB_C YB_C1 YB_F"/>
   </vehicle>
   <vehicle depart="25.00" id="6500" type="veh1">
      <route edges="YB_E1 YB_E2 KL_G1"/>
   </vehicle>
   <vehicle depart="25.00" id="9110" type="veh1">
      <route edges="KC_E1 KC_E2 KC_H"/>
   </vehicle>
   <vehicle depart="26.00" id="77" type="veh1">
      <route edges="GH_C GH_C2 GH_F"/>
   </vehicle>
   <vehicle depart="26.00" id="6459" type="veh1">
      <route edges="YB_C YB_C1 YB_E2 KL_G1"/>
   </vehicle>
   <vehicle depart="26.00" id="6561" type="veh1">
      <route edges="YB_E1 YB_E2 YB_G1 YB_A1 KC_E1"/>
   </vehicle>
   <vehicle depart="26.00" id="9080" type="veh1">
      <route edges="KC_E1 KC_F"/>
   </vehicle>
   <vehicle depart="27.00" id="174" type="veh1">
      <route edges="GH_C GH_C2 GH_H1 GH_H2"/>
   </vehicle>
   <vehicle depart="27.00" id="3038" type="veh1">
      <route edges="KL_C1 KL_C2 KL_D"/>
   </vehicle>
   <vehicle depart="27.00" id="3100" type="veh1">
      <route edges="KL_E1 KL_E2 YB_A2"/>
   </vehicle>
   <vehicle depart="27.00" id="6516" type="veh1">
      <route edges="YB_E1 YB_E2 KL_G1"/>
   </vehicle>
   <vehicle depart="27.00" id="8978" type="veh1">
      <route edges="KC_A1 KC_B"/>
   </vehicle>
   <vehicle depart="27.00" id="9000" type="veh1">
      <route edges="KC_A1 KC_B"/>
   </vehicle>
   <vehicle depart="28.00" id="286" type="veh1">
      <route edges="GH_G GH_G2 GH_G3 GH_B2 KL_C1"/>
   </vehicle>
   <vehicle depart="28.00" id="365" type="veh1">
      <route edges="GH_G GH_G2 GH_G3 GH_B2 KL_C1"/>
   </vehicle>
   <vehicle depart="28.00" id="3179" type="veh1">
      <route edges="KL_E1 KL_E2 KL_G2 GH_C"/>
   </vehicle>
   <vehicle depart="28.00" id="6418" type="veh1">
      <route edges="YB_A2 YB_A1 YB_C1 YB_F"/>
   </vehicle>
   <vehicle depart="28.00" id="6576" type="veh1">
      <route edges="YB_G KL_G1"/>
   </vehicle>
   <vehicle depart="28.00" id="9030" type="veh1">
      <route edges="KC_A1 KC_A2 YB_E1"/>
   </vehicle>
   <vehicle depart="29.00" id="3102" type="veh1">
      <route edges="KL_E1 KL_E2 YB_A2"/>
   </vehicle>
   <vehicle depart="29.00" id="3110" type="veh1">
      <route edges="KL_E1 KL_E2 YB_A2"/>
   </vehicle>
   <vehicle depart="29.00" id="3249" type="veh1">
      <route edges="KL_G1 KL_G2 KL_C2 KL_D"/>
   </vehicle>
   <vehicle depart="29.00" id="6602" type="veh1">
      <route edges="YB_G YB_G1 YB_A1 KC_E1"/>
   </vehicle>
   <vehicle depart="29.00" id="9015" type="veh1">
      <route edges="KC_A1 KC_A2 YB_E1"/>
   </vehicle>
   <vehicle depart="30.00" id="3064" type="veh1">
      <route edges="KL_C1 KL_C2 KL_E2 YB_A2"/>
   </vehicle>
   <vehicle depart="30.00" id="3131" type="veh1">
      <route edges="KL_E1 KL_E2 YB_A2"/>
   </vehicle>
   <vehicle depart="30.00" id="6526" type="veh1">
      <route edges="YB_E1 YB_E2 KL_G1"/>
   </vehicle>
   <vehicle depart="31.00" id="295" type="veh1">
      <route edges="GH_G GH_G2 GH_G3 GH_B2 KL_C1"/>
   </vehicle>
   <vehicle depart="31.00" id="3096" type="veh1">
      <route edges="KL_E1 KL_E2 YB_A2"/>
   </vehicle>
   <vehicle depart="32.00" id="3289" type="veh1">
      <route edges="KL_G1 KL_G2 KL_C2 KL_D"/>
   </vehicle>
   <vehicle depart="33.00" id="30" type="veh1">
      <route edges="GH_A1 GH_B1 KL_C1"/>
   </vehicle>
   <vehicle depart="33.00" id="6585" type="veh1">
      <route edges="YB_G KL_G1"/>
   </vehicle>
   <vehicle depart="34.00" id="268" type="veh1">
      <route edges="GH_G GH_G1 GH_H2"/>
   </vehicle>
   <vehicle depart="35.00" id="83" type="veh1">
      <route edges="GH_C GH_C2 GH_F"/>
   </vehicle>
   <vehicle depart="35.00" id="189" type="veh1">
      <route edges="GH_C GH_C2 GH_H1 GH_H2"/>
   </vehicle>
   <vehicle depart="35.00" id="3203" type="veh1">
      <route edges="KL_G1 KL_G2 GH_C"/>
   </vehicle>
   <vehicle depart="36.00" id="181" type="veh1">
      <route edges="GH_C GH_C2 GH_H1 GH_H2"/>
   </vehicle>
   <vehicle depart="36.00" id="3247" type="veh1">
      <route edges="KL_G1 KL_G2 GH_C"/>
   </vehicle>
   <vehicle depart="37.00" id="117" type="veh1">
      <route edges="GH_C GH_C2 GH_F"/>
   </vehicle>
   <vehicle depart="37.00" id="297" type="veh1">
      <route edges="GH_G GH_G2 GH_G3 GH_B2 KL_C1"/>
   </vehicle>
   <vehicle depart="37.00" id="3111" type="veh1">
      <route edges="KL_E1 KL_E2 YB_A2"/>
   </vehicle>
   <vehicle depart="37.00" id="3151" type="veh1">
      <route edges="KL_E1 KL_E2 YB_A2"/>
   </vehicle>
   <vehicle depart="37.00" id="3236" type="veh1">
      <route edges="KL_G1 KL_G2 GH_C"/>
   </vehicle>
   <vehicle depart="37.00" id="6416" type="veh1">
      <route edges="YB_A2 YB_A1 YB_C1 YB_F"/>
   </vehicle>
   <vehicle depart="38.00" id="149" type="veh1">
      <route edges="GH_C GH_C2 GH_F"/>
   </vehicle>
   <vehicle depart="38.00" id="160" type="veh1">
      <route edges="GH_C GH_C2 GH_F"/>
   </vehicle>
   <vehicle depart="38.00" id="3049" type="veh1">
      <route edges="KL_C1 KL_C2 KL_D"/>
   </vehicle>
   <vehicle depart="38.00" id="6509" type="veh1">
      <route edges="YB_E1 YB_E2 KL_G1"/>
   </vehicle>
   <vehicle depart="38.00" id="9014" type="veh1">
      <route edges="KC_A1 KC_A2 YB_E1"/>
   </vehicle>
   <vehicle depart="39.00" id="134" type="veh1">
      <route edges="GH_C GH_C2 GH_F"/>
   </vehicle>
   <vehicle depart="39.00" id="3036" type="veh1">
      <route edges="KL_C1 KL_C2 KL_D"/>
   </vehicle>
   <vehicle depart="39.00" id="3263" type="veh1">
      <route edges="KL_G1 KL_G2 KL_C2 KL_D"/>
   </vehicle>
   <vehicle depart="39.00" id="3325" type="veh1">
      <route edges="KL_G1 KL_G2 KL_C2 KL_E2 YB_A2"/>
   </vehicle>
   <vehicle depart="40.00" id="36" type="veh1">
      <route edges="GH_A1 GH_B1 KL_C1"/>
   </vehicle>
   <vehicle depart="40.00" id="203" type="veh1">
      <route edges="GH_C GH_C2 GH_H1 GH_H2"/>
   </vehicle>
   <vehicle depart="40.00" id="3090" type="veh1">
      <route edges="KL_C1 KL_C2 KL_E2 YB_A2"/>
   </vehicle>
   <vehicle depart="40.00" id="6429" type="veh1">
      <route edges="YB_C KC_E1"/>
   </vehicle>
   <vehicle depart="41.00" id="9" type="veh1">
      <route edges="GH_A1 GH_B1 KL_C1"/>
   </vehicle>
   <vehicle depart="41.00" id="323" type="veh1">
      <route edges="GH_G GH_G2 GH_G3 GH_B2 KL_C1"/>
   </vehicle>
   <vehicle depart="41.00" id="3295" type="veh1">
      <route edges="KL_G1 KL_G2 KL_C2 KL_D"/>
   </vehicle>
   <vehicle depart="41.00" id="6436" type="veh1">
      <route edges="YB_C YB_C1 YB_F"/>
   </vehicle>
   <vehicle depart="42.00" id="6399" type="veh1">
      <route edges="YB_A2 YB_A1 KC_E1"/>
   </vehicle>
   <vehicle depart="43.00" id="191" type="veh1">
      <route edges="GH_C GH_C2 GH_H1 GH_H2"/>
   </vehicle>
   <vehicle depart="43.00" id="6550" type="veh1">
      <route edges="YB_E1 YB_E2 KL_G1"/>
   </vehicle>
   <vehicle depart="43.00" id="6569" type="veh1">
      <route edges="YB_G KL_G1"/>
   </vehicle>
   <vehicle depart="43.00" id="9100" type="veh1">
      <route edges="KC_E1 KC_E2 KC_H"/>
   </vehicle>
   <vehicle depart="43.00" id="9101" type="veh1">
      <route edges="KC_E1 KC_E2 KC_H"/>
   </vehicle>
   <vehicle depart="44.00" id="6568" type="veh1">
      <route edges="YB_G KL_G1"/>
   </vehicle>
   <vehicle depart="44.00" id="6594" type="veh1">
      <route edges="YB_G YB_G1 YB_A1 KC_E1"/>
   </vehicle>
   <vehicle depart="45.00" id="137" type="veh1">
      <route edges="GH_C GH_C2 GH_F"/>
   </vehicle>
   <vehicle depart="45.00" id="214" type="veh1">
      <route edges="GH_C GH_C2 GH_H1 GH_H2"/>
   </vehicle>
   <vehicle depart="45.00" id="3088" type="veh1">
      <route edges="KL_C1 KL_C2 KL_E2 YB_A2"/>
   </vehicle>
   <vehicle depart="46.00" id="3218" type="veh1">
      <route edges="KL_G1 KL_G2 GH_C"/>
   </vehicle>
   <vehicle depart="46.00" id="3262" type="veh1">
      <route edges="KL_G1 KL_G2 KL_C2 KL_D"/>
   </vehicle>
   <vehicle depart="47.00" id="58" type="veh1">
      <route edges="GH_A1 GH_A2 GH_C2 GH_F"/>
   </vehicle>
   <vehicle depart="47.00" id="3129" type="veh1">
      <route edges="KL_E1 KL_E2 YB_A2"/>
   </vehicle>
   <vehicle depart="47.00" id="3291" type="veh1">
      <route edges="KL_G1 KL_G2 KL_C2 KL_D"/>
   </vehicle>
   <vehicle depart="47.00" id="6427" type="veh1">
      <route edges="YB_C KC_E1"/>
   </vehicle>
   <vehicle depart="47.00" id="9103" type="veh1">
      <route edges="KC_E1 KC_E2 KC_H"/>
   </vehicle>
   <vehicle depart="47.00" id="9129" type="veh1">
      <route edges="KC_G KC_H"/>
   </vehicle>
   <vehicle depart="48.00" id="70" type="veh1">
      <route edges="GH_A1 GH_A2 GH_C2 GH_F"/>
   </vehicle>
   <vehicle depart="48.00" id="210" type="veh1">
      <route edges="GH_C GH_C2 GH_H1 GH_H2"/>
   </vehicle>
   <vehicle depart="48.00" id="220" type="veh1">
      <route edges="GH_C GH_C2 GH_H1 GH_H2"/>
   </vehicle>
   <vehicle depart="48.00" id="282" type="veh1">
      <route edges="GH_G GH_G1 GH_H2"/>
   </vehicle>
   <vehicle depart="48.00" id="346" type="veh1">
      <route edges="GH_G GH_G2 GH_G3 GH_B2 KL_C1"/>
   </vehicle>
   <vehicle depart="49.00" id="97" type="veh1">
      <route edges="GH_C GH_C2 GH_F"/>
   </vehicle>
   <vehicle depart="49.00" id="329" type="veh1">
      <route edges="GH_G GH_G2 GH_G3 GH_B2 KL_C1"/>
   </vehicle>
   <vehicle depart="49.00" id="3134" type="veh1">
      <route edges="KL_E1 KL_E2 YB_A2"/>
   </vehicle>
   <vehicle depart="49.00" id="9046" type="veh1">
      <route edges="KC_A1 KC_A2 YB_E1"/>
   </vehicle>
   <vehicle depart="50.00" id="57" type="veh1">
      <route edges="GH_A1 GH_A2 GH_C2 GH_F"/>
   </vehicle>
   <vehicle depart="50.00" id="6415" type="veh1">
      <route edges="YB_A2 YB_A1 YB_C1 YB_F"/>
   </vehicle>
   <vehicle depart="50.00" id="9035" type="veh1">
      <route edges="KC_A1 KC_A2 YB_E1"/>
   </vehicle>
   <vehicle depart="51.00" id="3071" type="veh1">
      <route edges="KL_C1 KL_C2 KL_E2 YB_A2"/>
   </vehicle>
   <vehicle depart="51.00" id="3170" type="veh1">
      <route edges="KL_E1 KL_E2 KL_G2 GH_C"/>
   </vehicle>
   <vehicle depart="52.00" id="186" type="veh1">
      <route edges="GH_C GH_C2 GH_H1 GH_H2"/>
   </vehicle>
   <vehicle depart="52.00" id="3086" type="veh1">
      <route edges="KL_C1 KL_C2 KL_E2 YB_A2"/>
   </vehicle>
   <vehicle depart="52.00" id="3232" type="veh1">
      <route edges="KL_G1 KL_G2 GH_C"/>
   </vehicle>
   <vehicle depart="53.00" id="3106" type="veh1">
      <route edges="KL_E1 KL_E2 YB_A2"/>
   </vehicle>
   <vehicle depart="54.00" id="347" type="veh1">
      <route edges="GH_G GH_G2 GH_G3 GH_B2 KL_C1"/>
   </vehicle>
   <vehicle depart="55.00" id="132" type="veh1">
      <route edges="GH_C GH_C2 GH_F"/>
   </vehicle>
   <vehicle depart="55.00" id="201" type="veh1">
      <route edges="GH_C GH_C2 GH_H1 GH_H2"/>
   </vehicle>
   <vehicle depart="55.00" id="3184" type="veh1">
      <route edges="KL_E1 KL_E2 KL_G2 GH_C"/>
   </vehicle>
   <vehicle depart="55.00" id="6511" type="veh1">
      <route edges="YB_E1 YB_E2 KL_G1"/>
   </vehicle>
   <vehicle depart="55.00" id="9124" type="veh1">
      <route edges="KC_E1 KC_E2 KC_G1 KC_A2 YB_E1"/>
   </vehicle>
   <vehicle depart="56.00" id="3099" type="veh1">
      <route edges="KL_E1 KL_E2 YB_A2"/>
   </vehicle>
   <vehicle depart="56.00" id="3162" type="veh1">
      <route edges="KL_E1 KL_E2 KL_G2 GH_C"/>
   </vehicle>
   <vehicle depart="57.00" id="311" type="veh1">
      <route edges="GH_G GH_G2 GH_G3 GH_B2 KL_C1"/>
   </vehicle>
   <vehicle depart="57.00" id="3048" type="veh1">
      <route edges="KL_C1 KL_C2 KL_D"/>
   </vehicle>
   <vehicle depart="57.00" id="3187" type="veh1">
      <route edges="KL_E1 KL_E2 KL_G2 GH_C"/>
   </vehicle>
   <vehicle depart="57.00" id="9078" type="veh1">
      <route edges="KC_C KC_C1 KC_E2 KC_H"/>
   </vehicle>
   <vehicle depart="58.00" id="196" type="veh1">
      <route edges="GH_C GH_C2 GH_H1 GH_H2"/>
   </vehicle>
   <vehicle depart="58.00" id="3204" type="veh1">
      <route edges="KL_G1 KL_G2 GH_C"/>
   </vehicle>
   <vehicle depart="58.00" id="3307" type="veh1">
      <route edges="KL_G1 KL_G2 KL_C2 KL_D"/>
   </vehicle>
   <vehicle depart="58.00" id="6488" type="veh1">
      <route edges="YB_E1 YB_F"/>
   </vehicle>
   <vehicle depart="58.00" id="6575" type="veh1">
      <route edges="YB_G KL_G1"/>
   </vehicle>
   <vehicle depart="59.00" id="131" type="veh1">
      <route edges="GH_C GH_C2 GH_F"/>
   </vehicle>
   <vehicle depart="59.00" id="336" type="veh1">
      <route edges="GH_G GH_G2 GH_G3 GH_B2 KL_C1"/>
   </vehicle>
   <vehicle depart="59.00" id="3261" type="veh1">
      <route edges="KL_G1 KL_G2 KL_C2 KL_D"/>
   </vehicle>
   <vehicle depart="59.00" id="6422" type="veh1">
      <route edges="YB_A2 YB_A1 YB_C1 YB_F"/>
   </vehicle>
   <vehicle depart="59.00" id="6515" type="veh1">
      <route edges="YB_E1 YB_E2 KL_G1"/>
   </vehicle>
   <vehicle depart="59.00" id="6527" type="veh1">
      <route edges="YB_E1 YB_E2 KL_G1"/>
   </vehicle>
   <vehicle depart="59.00" id="9011" type="veh1">
      <route edges="KC_A1 KC_A2 YB_E1"/>
   </vehicle>
   <vehicle depart="61.00" id="231" type="veh1">
      <route edges="GH_E GH_F"/>
   </vehicle>
   <vehicle depart="61.00" id="321" type="veh1">
      <route edges="GH_G GH_G2 GH_G3 GH_B2 KL_C1"/>
   </vehicle>
   <vehicle depart="61.00" id="375" type="veh1">
      <route edges="GH_G GH_G2 GH_G3 GH_B2 KL_C1"/>
   </vehicle>
   <vehicle depart="61.00" id="3294" type="veh1">
      <route edges="KL_G1 KL_G2 KL_C2 KL_D"/>
   </vehicle>
   <vehicle depart="61.00" id="6535" type="veh1">
      <route edges="YB_E1 YB_E2 KL_G1"/>
   </vehicle>
   <vehicle depart="61.00" id="9083" type="veh1">
      <route edges="KC_E1 KC_F"/>
   </vehicle>
   <vehicle depart="62.00" id="238" type="veh1">
      <route edges="GH_E GH_F"/>
   </vehicle>
   <vehicle depart="62.00" id="3282" type="veh1">
      <route edges="KL_G1 KL_G2 KL_C2 KL_D"/>
   </vehicle>
   <vehicle depart="62.00" id="3326" type="veh1">
      <route edges="KL_G1 KL_G2 KL_C2 KL_E2 YB_A2"/>
   </vehicle>
   <vehicle depart="62.00" id="6455" type="veh1">
      <route edges="YB_C YB_C1 YB_E2 KL_G1"/>
   </vehicle>
   <vehicle depart="63.00" id="9018" type="veh1">
      <route edges="KC_A1 KC_A2 YB_E1"/>
   </vehicle>
   <vehicle depart="64.00" id="6531" type="veh1">
      <route edges="YB_E1 YB_E2 KL_G1"/>
   </vehicle>
   <vehicle depart="64.00" id="6549" type="veh1">
      <route edges="YB_E1 YB_E2 KL_G1"/>
   </vehicle>
   <vehicle depart="64.00" id="9082" type="veh1">
      <route edges="KC_E1 KC_F"/>
   </vehicle>
   <vehicle depart="65.00" id="9122" type="veh1">
      <route edges="KC_E1 KC_E2 KC_G1 KC_B"/>
   </vehicle>
   <vehicle depart="66.00" id="151" type="veh1">
      <route edges="GH_C GH_C2 GH_F"/>
   </vehicle>
   <vehicle depart="66.00" id="6513" type="veh1">
      <route edges="YB_E1 YB_E2 KL_G1"/>
   </vehicle>
   <vehicle depart="67.00" id="67" type="veh1">
      <route edges="GH_A1 GH_A2 GH_C2 GH_F"/>
   </vehicle>
   <vehicle depart="67.00" id="6474" type="veh1">
      <route edges="YB_C YB_C1 YB_E2 KL_G1"/>
   </vehicle>
   <vehicle depart="68.00" id="3273" type="veh1">
      <route edges="KL_G1 KL_G2 KL_C2 KL_D"/>
   </vehicle>
   <vehicle depart="68.00" id="6417" type="veh1">
      <route edges="YB_A2 YB_A1 YB_C1 YB_F"/>
   </vehicle>
   <vehicle depart="68.00" id="6437" type="veh1">
      <route edges="YB_C YB_C1 YB_F"/>
   </vehicle>
   <vehicle depart="69.00" id="3233" type="veh1">
      <route edges="KL_G1 KL_G2 GH_C"/>
   </vehicle>
   <vehicle depart="69.00" id="6395" type="veh1">
      <route edges="YB_A2 YB_A1 KC_E1"/>
   </vehicle>
   <vehicle depart="69.00" id="6454" type="veh1">
      <route edges="YB_C YB_C1 YB_E2 KL_G1"/>
   </vehicle>
   <vehicle depart="69.00" id="9045" type="veh1">
      <route edges="KC_A1 KC_A2 YB_E1"/>
   </vehicle>
   <vehicle depart="70.00" id="285" type="veh1">
      <route edges="GH_G GH_G2 GH_G3 GH_B2 KL_C1"/>
   </vehicle>
   <vehicle depart="70.00" id="3141" type="veh1">
      <route edges="KL_E1 KL_E2 YB_A2"/>
   </vehicle>
   <vehicle depart="70.00" id="3143" type="veh1">
      <route edges="KL_E1 KL_E2 YB_A2"/>
   </vehicle>
   <vehicle depart="70.00" id="9095" type="veh1">
      <route edges="KC_E1 KC_E2 KC_H"/>
   </vehicle>
   <vehicle depart="71.00" id="3257" type="veh1">
      <route edges="KL_G1 KL_G2 KL_C2 KL_D"/>
   </vehicle>
   <vehicle depart="71.00" id="6371" type="veh1">
      <route edges="YB_A2 YB_A1 KC_E1"/>
   </vehicle>
   <vehicle depart="72.00" id="337" type="veh1">
      <route edges="GH_G GH_G2 GH_G3 GH_B2 KL_C1"/>
   </vehicle>
   <vehicle depart="72.00" id="3268" type="veh1">
      <route edges="KL_G1 KL_G2 KL_C2 KL_D"/>
   </vehicle>
   <vehicle depart="73.00" id="3107" type="veh1">
      <route edges="KL_E1 KL_E2 YB_A2"/>
   </vehicle>
   <vehicle depart="73.00" id="3248" type="veh1">
      <route edges="KL_G1 KL_G2 GH_C"/>
   </vehicle>
   <vehicle depart="73.00" id="6440" type="veh1">
      <route edges="YB_C YB_C1 YB_F"/>
   </vehicle>
   <vehicle depart="73.00" id="9097" type="veh1">
      <route edges="KC_E1 KC_E2 KC_H"/>
   </vehicle>
   <vehicle depart="74.00" id="367" type="veh1">
      <route edges="GH_G GH_G2 GH_G3 GH_B2 KL_C1"/>
   </vehicle>
   <vehicle depart="74.00" id="3125" type="veh1">
      <route edges="KL_E1 KL_E2 YB_A2"/>
   </vehicle>
   <vehicle depart="74.00" id="3197" type="veh1">
      <route edges="KL_G1 KL_G2 GH_C"/>
   </vehicle>
   <vehicle depart="74.00" id="6444" type="veh1">
      <route edges="YB_C YB_C1 YB_F"/>
   </vehicle>
   <vehicle depart="74.00" id="6598" type="veh1">
      <route edges="YB_G YB_G1 YB_A1 KC_E1"/>
   </vehicle>
   <vehicle depart="75.00" id="306" type="veh1">
      <route edges="GH_G GH_G2 GH_G3 GH_B2 KL_C1"/>
   </vehicle>
   <vehicle depart="75.00" id="3095" type="veh1">
      <route edges="KL_E1 KL_E2 YB_A2"/>
   </vehicle>
   <vehicle depart="75.00" id="3320" type="veh1">
      <route edges="KL_G1 KL_G2 KL_C2 KL_E2 YB_A2"/>
   </vehicle>
   <vehicle depart="75.00" id="6367" type="veh1">
      <route edges="YB_A2 YB_A1 KC_E1"/>
   </vehicle>
   <vehicle depart="76.00" id="242" type="veh1">
      <route edges="GH_E GH_H1 GH_H2"/>
   </vehicle>
   <vehicle depart="77.00" id="78" type="veh1">
      <route edges="GH_C GH_C2 GH_F"/>
   </vehicle>
   <vehicle depart="77.00" id="8997" type="veh1">
      <route edges="KC_A1 KC_B"/>
   </vehicle>
   <vehicle depart="78.00" id="362" type="veh1">
      <route edges="GH_G GH_G2 GH_G3 GH_B2 KL_C1"/>
   </vehicle>
   <vehicle depart="78.00" id="3073" type="veh1">
      <route edges="KL_C1 KL_C2 KL_E2 YB_A2"/>
   </vehicle>
   <vehicle depart="78.00" id="3192" type="veh1">
      <route edges="KL_G1 KL_G2 GH_C"/>
   </vehicle>
   <vehicle depart="78.00" id="3209" type="veh1">
      <route edges="KL_G1 KL_G2 GH_C"/>
   </vehicle>
   <vehicle depart="78.00" id="3213" type="veh1">
      <route edges="KL_G1 KL_G2 GH_C"/>
   </vehicle>
   <vehicle depart="78.00" id="9009" type="veh1">
      <route edges="KC_A1 KC_A2 YB_E1"/>
   </vehicle>
   <vehicle depart="78.00" id="9068" type="veh1">
      <route edges="KC_C KC_C1 KC_F"/>
   </vehicle>
   <vehicle depart="79.00" id="6541" type="veh1">
      <route edges="YB_E1 YB_E2 KL_G1"/>
   </vehicle>
   <vehicle depart="80.00" id="56" type="veh1">
      <route edges="GH_A1 GH_A2 GH_C2 GH_F"/>
   </vehicle>
   <vehicle depart="80.00" id="6392" type="veh1">
      <route edges="YB_A2 YB_A1 KC_E1"/>
   </vehicle>
   <vehicle depart="80.00" id="6557" type="veh1">
      <route edges="YB_E1 YB_E2 YB_G1 YB_B"/>
   </vehicle>
   <vehicle depart="80.00" id="9010" type="veh1">
      <route edges="KC_A1 KC_A2 YB_E1"/>
   </vehicle>
   <vehicle depart="81.00" id="28" type="veh1">
      <route edges="GH_A1 GH_B1 KL_C1"/>
   </vehicle>
   <vehicle depart="82.00" id="6584" type="veh1">
      <route edges="YB_G KL_G1"/>
   </vehicle>
   <vehicle depart="83.00" id="84" type="veh1">
      <route edges="GH_C GH_C2 GH_F"/>
   </vehicle>
   <vehicle depart="84.00" id="42" type="veh1">
      <route edges="GH_A1 GH_B1 KL_C1"/>
   </vehicle>
   <vehicle depart="84.00" id="64" type="veh1">
      <route edges="GH_A1 GH_A2 GH_C2 GH_F"/>
   </vehicle>
   <vehicle depart="84.00" id="109" type="veh1">
      <route edges="GH_C GH_C2 GH_F"/>
   </vehicle>
   <vehicle depart="85.00" id="179" type="veh1">
      <route edges="GH_C GH_C2 GH_H1 GH_H2"/>
   </vehicle>
   <vehicle depart="86.00" id="3047" type="veh1">
      <route edges="KL_C1 KL_C2 KL_D"/>
   </vehicle>
   <vehicle depart="86.00" id="6384" type="veh1">
      <route edges="YB_A2 YB_A1 KC_E1"/>
   </vehicle>
   <vehicle depart="87.00" id="116" type="veh1">
      <route edges="GH_C GH_C2 GH_F"/>
   </vehicle>
   <vehicle depart="87.00" id="233" type="veh1">
      <route edges="GH_E GH_F"/>
   </vehicle>
   <vehicle depart="87.00" id="290" type="veh1">
      <route edges="GH_G GH_G2 GH_G3 GH_B2 KL_C1"/>
   </vehicle>
   <vehicle depart="87.00" id="6421" type="veh1">
      <route edges="YB_A2 YB_A1 YB_C1 YB_F"/>
   </vehicle>
   <vehicle depart="87.00" id="8993" type="veh1">
      <route edges="KC_A1 KC_B"/>
   </vehicle>