<?xml version="1.0" encoding="UTF-8"?>

<!-- generated on 07/17/20 16:05:09 by Eclipse SUMO netedit Version 1.3.1
<configuration xmlns:xsi="http://www.w3.org/2001/XMLSchema-instance" xsi:noNamespaceSchemaLocation="http://sumo.dlr.de/xsd/netconvertConfiguration.xsd">

    <input>
        <sumo-net-file value="C:\Users\skkilic\Documents\KU\SmartJunction\Data\sim\data\gunes_kcetas\gunes_kcetas.net.xml"/>
    </input>

    <output>
        <output-file value="C:\Users\skkilic\Documents\KU\SmartJunction\Data\sim\data\gunes_kcetas\gunes_kcetas.net.xml"/>
    </output>

    <processing>
        <geometry.max-grade.fix value="false"/>
        <offset.disable-normalization value="true"/>
        <opposites.guess.fix-lengths value="true"/>
        <lefthand value="false"/>
    </processing>

    <junctions>
        <no-turnarounds value="true"/>
        <junctions.corner-detail value="5"/>
        <junctions.limit-turn-speed value="5.5"/>
        <rectangular-lane-cut value="false"/>
    </junctions>

    <pedestrian>
        <walkingareas value="false"/>
    </pedestrian>

</configuration>
-->

<net version="1.3" junctionCornerDetail="5" limitTurnSpeed="5.50" xmlns:xsi="http://www.w3.org/2001/XMLSchema-instance" xsi:noNamespaceSchemaLocation="http://sumo.dlr.de/xsd/net_file.xsd">

    <location netOffset="0.00,0.00" convBoundary="-1051.51,-283.88,2176.29,771.75" origBoundary="-10000000000.00,-10000000000.00,10000000000.00,10000000000.00" projParameter="!"/>

    <edge id=":GH_J1_0" function="internal">
        <lane id=":GH_J1_0_0" index="0" speed="13.52" length="8.90" shape="-473.46,81.29 -472.85,83.77 -471.92,85.29 -470.59,86.64 -468.79,88.61"/>
    </edge>
    <edge id=":GH_J1_1" function="internal">
        <lane id=":GH_J1_1_0" index="0" speed="13.89" length="8.89" shape="-473.46,81.29 -472.38,90.14"/>
        <lane id=":GH_J1_1_1" index="1" speed="13.89" length="8.89" shape="-476.63,81.75 -475.55,90.55"/>
    </edge>
    <edge id=":GH_J2_0" function="internal">
        <lane id=":GH_J2_0_0" index="0" speed="13.89" length="13.97" shape="-463.48,125.51 -477.42,126.45"/>
        <lane id=":GH_J2_0_1" index="1" speed="13.89" length="13.97" shape="-463.70,122.32 -477.64,123.26"/>
    </edge>
    <edge id=":GH_J2_2" function="internal">
        <lane id=":GH_J2_2_0" index="0" speed="4.72" length="7.01" shape="-463.92,119.12 -466.42,117.69 -467.33,116.15 -466.64,114.50 -464.36,112.74"/>
        <lane id=":GH_J2_2_1" index="1" speed="3.65" length="7.01" shape="-463.92,119.12 -465.17,118.41 -465.63,117.64 -465.28,116.81 -464.14,115.93"/>
    </edge>
    <edge id=":GH_J2_4" function="internal">
        <lane id=":GH_J2_4_0" index="0" speed="10.36" length="25.65" shape="-470.56,104.29 -469.95,113.75 -470.89,120.59 -473.38,124.83 -477.42,126.45"/>
    </edge>
    <edge id=":GH_J2_5" function="internal">
        <lane id=":GH_J2_5_0" index="0" speed="9.31" length="20.50" shape="-473.73,104.70 -473.10,112.66 -473.54,118.41 -475.05,121.94 -477.64,123.26"/>
    </edge>
    <edge id=":GH_J2_6" function="internal">
        <lane id=":GH_J2_6_0" index="0" speed="8.62" length="17.43" shape="-473.73,104.70 -473.27,111.27 -473.80,116.02 -475.33,118.95 -477.85,120.07"/>
    </edge>
    <edge id=":GH_J2_7" function="internal">
        <lane id=":GH_J2_7_0" index="0" speed="13.89" length="13.95" shape="-478.49,110.49 -464.57,109.55"/>
        <lane id=":GH_J2_7_1" index="1" speed="13.89" length="13.95" shape="-478.28,113.68 -464.36,112.74"/>
        <lane id=":GH_J2_7_2" index="2" speed="13.89" length="13.95" shape="-478.06,116.87 -464.14,115.93"/>
    </edge>
    <edge id=":GH_J3_0" function="internal">
        <lane id=":GH_J3_0_0" index="0" speed="6.77" length="9.61" shape="-511.55,134.58 -512.22,132.11 -513.56,130.42 -515.57,129.50 -518.25,129.37"/>
    </edge>
    <edge id=":GH_J3_1" function="internal">
        <lane id=":GH_J3_1_0" index="0" speed="7.56" length="12.23" shape="-511.55,134.58 -512.38,130.72 -513.82,128.03 -515.87,126.52 -518.52,126.18"/>
    </edge>
    <edge id=":GH_J3_2" function="internal">
        <lane id=":GH_J3_2_0" index="0" speed="13.89" length="27.47" shape="-511.55,134.58 -514.60,107.26"/>
        <lane id=":GH_J3_2_1" index="1" speed="13.89" length="27.47" shape="-508.37,134.21 -511.41,106.92"/>
    </edge>
    <edge id=":GH_J3_4" function="internal">
        <lane id=":GH_J3_4_0" index="0" speed="9.40" length="20.78" shape="-508.37,134.21 -508.92,126.14 -508.42,120.32 -506.85,116.74 -504.21,115.41"/>
    </edge>
    <edge id=":GH_J3_5" function="internal">
        <lane id=":GH_J3_5_0" index="0" speed="8.72" length="17.74" shape="-508.37,134.21 -508.77,127.53 -508.18,122.71 -506.59,119.73 -504.00,118.61"/>
    </edge>
    <edge id=":GH_J3_6" function="internal">
        <lane id=":GH_J3_6_0" index="0" speed="13.89" length="14.96" shape="-503.36,128.18 -518.25,129.37"/>
        <lane id=":GH_J3_6_1" index="1" speed="13.89" length="14.96" shape="-503.58,124.99 -518.52,126.18"/>
    </edge>
    <edge id=":GH_J3_8" function="internal">
        <lane id=":GH_J3_8_0" index="0" speed="10.18" length="22.94" shape="-503.58,124.99 -507.68,124.11 -510.88,120.86 -513.19,115.24 -514.60,107.26"/>
    </edge>
    <edge id=":GH_J3_9" function="internal">
        <lane id=":GH_J3_9_0" index="0" speed="13.89" length="15.05" shape="-503.79,121.80 -518.80,122.99"/>
    </edge>
    <edge id=":GH_J3_10" function="internal">
        <lane id=":GH_J3_10_0" index="0" speed="9.09" length="18.06" shape="-503.79,121.80 -506.52,121.02 -508.71,118.28 -510.34,113.58 -511.41,106.92"/>
    </edge>
    <edge id=":GH_J3_11" function="internal">
        <lane id=":GH_J3_11_0" index="0" speed="13.89" length="15.18" shape="-519.62,113.28 -504.43,112.22"/>
        <lane id=":GH_J3_11_1" index="1" speed="13.89" length="15.18" shape="-519.35,116.47 -504.21,115.41"/>
        <lane id=":GH_J3_11_2" index="2" speed="13.89" length="15.18" shape="-519.08,119.66 -504.00,118.61"/>
    </edge>
    <edge id=":GH_J4_0" function="internal">
        <lane id=":GH_J4_0_0" index="0" speed="13.89" length="9.83" shape="-516.04,93.55 -516.90,83.87"/>
        <lane id=":GH_J4_0_1" index="1" speed="13.89" length="9.83" shape="-512.85,93.21 -513.75,83.31"/>
    </edge>
    <edge id=":GH_J4_2" function="internal">
        <lane id=":GH_J4_2_0" index="0" speed="12.53" length="9.81" shape="-519.87,92.90 -518.43,90.33 -517.31,88.53 -516.73,86.65 -516.90,83.87"/>
    </edge>
    <edge id=":KC_J1_0" function="internal">
        <lane id=":KC_J1_0_0" index="0" speed="7.21" length="11.52" shape="1504.84,335.33 1504.80,337.84 1505.97,339.89 1508.36,341.48 1511.96,342.61"/>
    </edge>
    <edge id=":KC_J1_1" function="internal">
        <lane id=":KC_J1_1_0" index="0" speed="8.57" length="16.73" shape="1501.73,334.59 1501.55,338.54 1503.09,341.71 1506.34,344.11 1511.29,345.74"/>
    </edge>
    <edge id=":KC_J1_2" function="internal">
        <lane id=":KC_J1_2_0" index="0" speed="13.89" length="18.67" shape="1501.73,334.59 1501.45,340.10 1502.79,343.96 1504.13,347.82 1503.85,353.34"/>
        <lane id=":KC_J1_2_1" index="1" speed="13.89" length="18.67" shape="1501.73,334.59 1500.99,339.87 1501.23,343.59 1501.48,347.32 1500.74,352.60"/>
    </edge>
    <edge id=":KC_J1_4" function="internal">
        <lane id=":KC_J1_4_0" index="0" speed="13.89" length="17.53" shape="1494.87,338.91 1511.96,342.61"/>
        <lane id=":KC_J1_4_1" index="1" speed="13.89" length="17.53" shape="1494.16,342.03 1511.29,345.74"/>
        <lane id=":KC_J1_4_2" index="2" speed="13.89" length="17.53" shape="1493.45,345.15 1510.63,348.87"/>
    </edge>
    <edge id=":KC_J1_7" function="internal">
        <lane id=":KC_J1_7_0" index="0" speed="7.31" length="11.74" shape="1493.45,345.15 1497.12,346.35 1499.57,347.99 1500.77,350.07 1500.74,352.60"/>
    </edge>
    <edge id=":KC_J1_8" function="internal">
        <lane id=":KC_J1_8_0" index="0" speed="6.49" length="9.03" shape="1493.45,345.15 1495.76,346.04 1497.23,347.45 1497.85,349.39 1497.63,351.86"/>
    </edge>
    <edge id=":KC_J2_0" function="internal">
        <lane id=":KC_J2_0_0" index="0" speed="6.72" length="9.41" shape="1503.69,378.54 1501.13,378.38 1499.10,379.06 1497.60,380.58 1496.63,382.96"/>
    </edge>
    <edge id=":KC_J2_1" function="internal">
        <lane id=":KC_J2_1_0" index="0" speed="13.89" length="17.67" shape="1503.69,378.54 1486.39,374.92"/>
        <lane id=":KC_J2_1_1" index="1" speed="13.89" length="17.67" shape="1504.34,375.41 1487.05,371.79"/>
        <lane id=":KC_J2_1_2" index="2" speed="13.89" length="17.67" shape="1505.00,372.28 1487.70,368.66"/>
    </edge>
    <edge id=":KC_J2_4" function="internal">
        <lane id=":KC_J2_4_0" index="0" speed="13.89" length="17.61" shape="1500.90,365.82 1496.63,382.96"/>
        <lane id=":KC_J2_4_1" index="1" speed="13.89" length="17.61" shape="1497.78,365.09 1493.53,382.17"/>
        <lane id=":KC_J2_4_2" index="2" speed="13.89" length="17.61" shape="1494.67,364.35 1490.42,381.39"/>
    </edge>
    <edge id=":KC_J2_7" function="internal">
        <lane id=":KC_J2_7_0" index="0" speed="7.45" length="11.92" shape="1494.67,364.35 1493.43,368.04 1491.74,370.52 1489.62,371.76 1487.05,371.79"/>
    </edge>
    <edge id=":KC_J2_8" function="internal">
        <lane id=":KC_J2_8_0" index="0" speed="6.65" length="9.29" shape="1494.67,364.35 1493.75,366.68 1492.28,368.17 1490.26,368.83 1487.70,368.66"/>
    </edge>
    <edge id=":KC_J3_0" function="internal">
        <lane id=":KC_J3_0_0" index="0" speed="13.89" length="18.03" shape="1460.66,369.51 1443.02,365.94"/>
        <lane id=":KC_J3_0_1" index="1" speed="13.89" length="18.03" shape="1461.32,366.38 1443.65,362.80"/>
        <lane id=":KC_J3_0_2" index="2" speed="13.89" length="18.03" shape="1461.98,363.25 1444.28,359.66"/>
    </edge>
    <edge id=":KC_J3_3" function="internal">
        <lane id=":KC_J3_3_0" index="0" speed="7.28" length="11.77" shape="1461.98,363.25 1458.27,362.10 1455.82,360.49 1454.60,358.41 1454.64,355.86"/>
    </edge>
    <edge id=":KC_J3_4" function="internal">
        <lane id=":KC_J3_4_0" index="0" speed="6.45" length="9.03" shape="1461.98,363.25 1459.64,362.40 1458.16,361.01 1457.53,359.07 1457.75,356.60"/>
    </edge>
    <edge id=":KC_J3_5" function="internal">
        <lane id=":KC_J3_5_0" index="0" speed="6.41" length="9.04" shape="1447.21,372.56 1447.46,370.08 1446.85,368.15 1445.37,366.77 1443.02,365.94"/>
    </edge>
    <edge id=":KC_J3_6" function="internal">
        <lane id=":KC_J3_6_0" index="0" speed="13.89" length="17.96" shape="1447.21,372.56 1451.53,355.13"/>
    </edge>
    <edge id=":KC_J3_7" function="internal">
        <lane id=":KC_J3_7_0" index="0" speed="7.92" length="14.38" shape="1450.31,373.34 1450.72,369.39 1449.74,366.32 1447.39,364.12 1443.65,362.80"/>
    </edge>
    <edge id=":KC_J3_8" function="internal">
        <lane id=":KC_J3_8_0" index="0" speed="13.89" length="18.03" shape="1450.31,373.34 1454.64,355.86"/>
        <lane id=":KC_J3_8_1" index="1" speed="13.89" length="18.03" shape="1453.41,374.12 1457.75,356.60"/>
    </edge>
    <edge id=":KC_J4_0" function="internal">
        <lane id=":KC_J4_0_0" index="0" speed="7.60" length="12.14" shape="1451.68,329.57 1455.65,329.97 1458.68,329.47 1460.77,328.07 1461.92,325.78"/>
    </edge>
    <edge id=":KC_J4_1" function="internal">
        <lane id=":KC_J4_1_0" index="0" speed="13.89" length="17.54" shape="1451.68,329.57 1468.99,333.01"/>
        <lane id=":KC_J4_1_1" index="1" speed="13.89" length="17.54" shape="1451.08,332.72 1468.28,336.13"/>
        <lane id=":KC_J4_1_2" index="2" speed="13.89" length="17.54" shape="1450.49,335.86 1467.57,339.25"/>
    </edge>
    <edge id=":KC_J4_4" function="internal">
        <lane id=":KC_J4_4_0" index="0" speed="13.89" length="18.04" shape="1454.59,342.18 1456.30,337.16 1458.21,333.97 1460.15,330.79 1461.92,325.78"/>
        <lane id=":KC_J4_4_1" index="1" speed="13.89" length="18.04" shape="1457.70,342.92 1459.41,337.91 1461.32,334.73 1463.26,331.56 1465.03,326.56"/>
    </edge>
    <edge id=":KC_J4_6" function="internal">
        <lane id=":KC_J4_6_0" index="0" speed="7.39" length="11.87" shape="1460.81,343.66 1462.06,339.90 1463.72,337.40 1465.79,336.14 1468.28,336.13"/>
    </edge>
    <edge id=":KC_J4_7" function="internal">
        <lane id=":KC_J4_7_0" index="0" speed="6.57" length="9.18" shape="1460.81,343.66 1461.74,341.27 1463.17,339.74 1465.12,339.06 1467.57,339.25"/>
    </edge>
    <edge id=":KL_J1_0" function="internal">
        <lane id=":KL_J1_0_0" index="0" speed="6.63" length="6.83" shape="183.67,45.88 182.74,47.42 182.36,48.99 182.53,50.60 183.25,52.24"/>
    </edge>
    <edge id=":KL_J1_1" function="internal">
        <lane id=":KL_J1_1_0" index="0" speed="8.16" length="10.73" shape="181.17,43.89 179.70,46.30 179.11,48.78 179.38,51.30 180.51,53.89"/>
    </edge>
    <edge id=":KL_J1_2" function="internal">
        <lane id=":KL_J1_2_0" index="0" speed="9.44" length="14.63" shape="178.66,41.90 176.67,45.19 175.85,48.56 176.22,52.01 177.77,55.53"/>
    </edge>
    <edge id=":KL_J1_3" function="internal">
        <lane id=":KL_J1_3_0" index="0" speed="13.89" length="12.18" shape="163.54,44.59 166.08,42.30 167.64,40.55 169.06,38.66 171.14,35.93"/>
        <lane id=":KL_J1_3_1" index="1" speed="13.89" length="12.18" shape="165.62,47.03 168.29,44.61 169.95,42.78 171.45,40.79 173.65,37.92"/>
        <lane id=":KL_J1_3_2" index="2" speed="13.89" length="12.18" shape="167.69,49.46 170.51,46.93 172.26,45.01 173.84,42.93 176.15,39.91"/>
    </edge>
    <edge id=":KL_J1_6" function="internal">
        <lane id=":KL_J1_6_0" index="0" speed="8.00" length="15.98" shape="167.69,49.46 171.02,47.59 174.26,47.70 177.43,49.80 180.51,53.89"/>
    </edge>
    <edge id=":KL_J1_7" function="internal">
        <lane id=":KL_J1_7_0" index="0" speed="7.37" length="13.37" shape="167.69,49.46 169.92,48.48 172.34,49.17 174.96,51.52 177.77,55.53"/>
    </edge>
    <edge id=":KL_J2_0" function="internal">
        <lane id=":KL_J2_0_0" index="0" speed="13.89" length="6.55" shape="191.19,86.92 189.48,86.27 188.31,85.81 187.12,85.43 185.34,85.00"/>
        <lane id=":KL_J2_0_1" index="1" speed="13.89" length="6.55" shape="192.25,83.90 190.43,83.21 189.18,82.73 187.91,82.33 186.02,81.88"/>
        <lane id=":KL_J2_0_2" index="2" speed="13.89" length="6.55" shape="193.30,80.88 191.38,80.15 190.05,79.64 188.71,79.23 186.71,78.75"/>
    </edge>
    <edge id=":KL_J2_3" function="internal">
        <lane id=":KL_J2_3_0" index="0" speed="7.47" length="6.19" shape="193.46,69.27 194.10,70.27 194.66,70.89 195.38,71.32 196.49,71.74"/>
        <lane id=":KL_J2_3_1" index="1" speed="9.19" length="6.19" shape="190.72,70.91 191.71,72.48 192.59,73.44 193.71,74.10 195.44,74.76"/>
        <lane id=":KL_J2_3_2" index="2" speed="10.42" length="6.19" shape="190.72,70.91 191.62,73.21 191.92,75.12 192.54,76.64 194.38,77.78"/>
    </edge>
    <edge id=":KL_J2_6" function="internal">
        <lane id=":KL_J2_6_0" index="0" speed="6.46" length="14.01" shape="187.97,72.56 190.37,77.35 190.85,80.50 189.40,82.01 186.02,81.88"/>
    </edge>
    <edge id=":KL_J2_7" function="internal">
        <lane id=":KL_J2_7_0" index="0" speed="5.40" length="9.29" shape="187.97,72.56 189.57,75.74 189.89,77.83 188.93,78.83 186.71,78.75"/>
    </edge>
    <edge id=":KL_J3_0" function="internal">
        <lane id=":KL_J3_0_0" index="0" speed="13.89" length="5.88" shape="149.04,77.08 147.65,76.82 146.67,76.77 145.69,76.87 144.27,77.06"/>
        <lane id=":KL_J3_0_1" index="1" speed="13.89" length="5.88" shape="149.72,73.95 148.02,73.63 146.83,73.56 145.63,73.66 143.89,73.88"/>
        <lane id=":KL_J3_0_2" index="2" speed="13.89" length="5.88" shape="150.41,70.83 148.39,70.44 146.98,70.34 145.57,70.45 143.52,70.71"/>
    </edge>
    <edge id=":KL_J3_3" function="internal">
        <lane id=":KL_J3_3_0" index="0" speed="6.46" length="13.31" shape="150.41,70.83 146.46,69.45 144.73,67.54 145.23,65.08 147.95,62.09"/>
    </edge>
    <edge id=":KL_J3_4" function="internal">
        <lane id=":KL_J3_4_0" index="0" speed="5.48" length="9.14" shape="150.41,70.83 148.06,69.93 147.22,68.57 147.87,66.77 150.03,64.52"/>
    </edge>
    <edge id=":KL_J3_5" function="internal">
        <lane id=":KL_J3_5_0" index="0" speed="8.37" length="5.80" shape="142.39,61.17 143.53,61.01 144.30,60.79 144.99,60.38 145.88,59.65"/>
        <lane id=":KL_J3_5_1" index="1" speed="10.10" length="5.80" shape="142.77,64.35 144.46,64.11 145.61,63.78 146.63,63.17 147.95,62.09"/>
        <lane id=":KL_J3_5_2" index="2" speed="11.58" length="5.80" shape="143.14,67.53 145.39,67.21 146.91,66.77 148.27,65.96 150.03,64.52"/>
    </edge>
    <edge id=":YB_J1_0" function="internal">
        <lane id=":YB_J1_0_0" index="0" speed="6.61" length="9.18" shape="633.13,163.69 632.99,166.18 633.69,168.13 635.22,169.55 637.58,170.44"/>
    </edge>
    <edge id=":YB_J1_1" function="internal">
        <lane id=":YB_J1_1_0" index="0" speed="13.89" length="17.63" shape="633.13,163.69 629.50,180.94"/>
    </edge>
    <edge id=":YB_J1_2" function="internal">
        <lane id=":YB_J1_2_0" index="0" speed="8.08" length="14.26" shape="629.99,163.06 629.78,166.93 630.86,169.98 633.22,172.19 636.88,173.56"/>
    </edge>
    <edge id=":YB_J1_3" function="internal">
        <lane id=":YB_J1_3_0" index="0" speed="13.89" length="17.50" shape="629.99,163.06 626.39,180.18"/>
    </edge>
    <edge id=":YB_J1_4" function="internal">
        <lane id=":YB_J1_4_0" index="0" speed="13.89" length="14.50" shape="623.48,167.24 637.58,170.44"/>
        <lane id=":YB_J1_4_1" index="1" speed="13.89" length="14.50" shape="622.75,170.35 636.88,173.56"/>
        <lane id=":YB_J1_4_2" index="2" speed="13.89" length="14.50" shape="622.01,173.47 636.18,176.69"/>
    </edge>
    <edge id=":YB_J1_7" function="internal">
        <lane id=":YB_J1_7_0" index="0" speed="7.35" length="11.89" shape="622.01,173.47 625.78,174.72 628.29,176.38 629.53,178.45 629.50,180.94"/>
    </edge>
    <edge id=":YB_J1_8" function="internal">
        <lane id=":YB_J1_8_0" index="0" speed="6.53" length="9.16" shape="622.01,173.47 624.42,174.39 625.95,175.82 626.61,177.75 626.39,180.18"/>
    </edge>
    <edge id=":YB_J2_0" function="internal">
        <lane id=":YB_J2_0_0" index="0" speed="6.44" length="9.03" shape="630.63,202.41 628.15,202.26 626.24,202.96 624.91,204.49 624.14,206.85"/>
    </edge>
    <edge id=":YB_J2_1" function="internal">
        <lane id=":YB_J2_1_0" index="0" speed="13.89" length="14.74" shape="630.63,202.41 616.17,199.44"/>
        <lane id=":YB_J2_1_1" index="1" speed="13.89" length="14.74" shape="631.27,199.27 616.83,196.31"/>
        <lane id=":YB_J2_1_2" index="2" speed="13.89" length="14.74" shape="631.91,196.14 617.50,193.18"/>
    </edge>
    <edge id=":YB_J2_4" function="internal">
        <lane id=":YB_J2_4_0" index="0" speed="13.89" length="17.82" shape="627.42,189.45 624.14,206.85"/>
        <lane id=":YB_J2_4_1" index="1" speed="13.89" length="17.82" shape="624.31,188.69 620.99,206.31"/>
    </edge>
    <edge id=":YB_J2_6" function="internal">
        <lane id=":YB_J2_6_0" index="0" speed="7.46" length="11.89" shape="624.31,188.69 623.04,192.44 621.37,194.97 619.30,196.26 616.83,196.31"/>
    </edge>
    <edge id=":YB_J2_7" function="internal">
        <lane id=":YB_J2_7_0" index="0" speed="6.65" length="9.24" shape="624.31,188.69 623.36,191.08 621.91,192.63 619.96,193.33 617.50,193.18"/>
    </edge>
    <edge id=":YB_J3_0" function="internal">
        <lane id=":YB_J3_0_0" index="0" speed="13.89" length="14.34" shape="599.53,195.92 585.47,192.49"/>
        <lane id=":YB_J3_0_1" index="1" speed="13.89" length="14.34" shape="600.19,192.79 586.27,189.39"/>
        <lane id=":YB_J3_0_2" index="2" speed="13.89" length="14.34" shape="600.86,189.66 587.07,186.29"/>
    </edge>
    <edge id=":YB_J3_3" function="internal">
        <lane id=":YB_J3_3_0" index="0" speed="6.55" length="9.09" shape="600.86,189.66 598.53,188.81 597.03,187.41 596.35,185.46 596.50,182.96"/>
    </edge>
    <edge id=":YB_J3_4" function="internal">
        <lane id=":YB_J3_4_0" index="0" speed="6.84" length="9.51" shape="590.19,199.53 590.27,197.00 589.51,194.99 587.91,193.48 585.47,192.49"/>
    </edge>
    <edge id=":YB_J3_5" function="internal">
        <lane id=":YB_J3_5_0" index="0" speed="13.89" length="17.45" shape="590.19,199.53 593.36,182.34"/>
        <lane id=":YB_J3_5_1" index="1" speed="13.89" length="17.45" shape="593.34,200.09 596.50,182.96"/>
    </edge>
    <edge id=":YB_J4_0" function="internal">
        <lane id=":YB_J4_0_0" index="0" speed="6.48" length="9.03" shape="592.09,160.05 594.56,160.23 596.49,159.56 597.86,158.06 598.69,155.72"/>
    </edge>
    <edge id=":YB_J4_1" function="internal">
        <lane id=":YB_J4_1_0" index="0" speed="7.30" length="11.75" shape="592.09,160.05 595.93,160.52 598.83,160.05 600.80,158.67 601.83,156.36"/>
    </edge>
    <edge id=":YB_J4_2" function="internal">
        <lane id=":YB_J4_2_0" index="0" speed="13.89" length="14.61" shape="592.09,160.05 606.42,163.21"/>
        <lane id=":YB_J4_2_1" index="1" speed="13.89" length="14.61" shape="591.42,163.18 605.69,166.33"/>
        <lane id=":YB_J4_2_2" index="2" speed="13.89" length="14.61" shape="590.75,166.31 604.95,169.44"/>
    </edge>
    <edge id=":YB_J4_5" function="internal">
        <lane id=":YB_J4_5_0" index="0" speed="13.89" length="17.69" shape="595.20,173.07 598.69,155.72"/>
        <lane id=":YB_J4_5_1" index="1" speed="13.89" length="17.69" shape="598.34,173.69 601.83,156.36"/>
    </edge>
    <edge id=":YB_J4_7" function="internal">
        <lane id=":YB_J4_7_0" index="0" speed="7.26" length="11.79" shape="598.34,173.69 599.45,169.97 601.04,167.51 603.12,166.29 605.69,166.33"/>
    </edge>
    <edge id=":YB_J4_8" function="internal">
        <lane id=":YB_J4_8_0" index="0" speed="6.43" length="9.03" shape="598.34,173.69 599.17,171.34 600.54,169.85 602.47,169.22 604.95,169.44"/>
    </edge>
    <edge id=":gneJ179_0" function="internal">
        <lane id=":gneJ179_0_0" index="0" speed="7.98" length="7.49" shape="-455.71,104.71 -454.11,106.45 -452.55,107.67 -451.03,108.36 -449.56,108.52"/>
    </edge>
    <edge id=":gneJ179_1" function="internal">
        <lane id=":gneJ179_1_0" index="0" speed="13.89" length="8.06" shape="-457.61,109.07 -449.56,108.52"/>
        <lane id=":gneJ179_1_1" index="1" speed="13.89" length="8.06" shape="-457.39,112.26 -449.34,111.71"/>
        <lane id=":gneJ179_1_2" index="2" speed="13.89" length="8.06" shape="-457.17,115.46 -449.13,114.91"/>
    </edge>
    <edge id=":gneJ181_0" function="internal">
        <lane id=":gneJ181_0_0" index="0" speed="7.56" length="7.50" shape="-533.02,114.25 -531.48,113.84 -530.08,112.91 -528.81,111.45 -527.68,109.46"/>
    </edge>
    <edge id=":gneJ181_1" function="internal">
        <lane id=":gneJ181_1_0" index="0" speed="13.89" length="8.19" shape="-533.02,114.25 -524.80,113.65"/>
        <lane id=":gneJ181_1_1" index="1" speed="13.89" length="8.19" shape="-532.74,117.43 -524.58,116.84"/>
        <lane id=":gneJ181_1_2" index="2" speed="13.89" length="8.19" shape="-532.47,120.62 -524.35,120.04"/>
    </edge>

    <edge id="GH_A1" from="gneJ165" to="GH_J1" priority="-1">
        <lane id="GH_A1_0" index="0" speed="13.89" length="362.80" shape="-526.27,-277.65 -473.46,81.29"/>
        <lane id="GH_A1_1" index="1" speed="13.89" length="362.80" shape="-529.44,-277.18 -476.63,81.75"/>
    </edge>
    <edge id="GH_A2" from="GH_J1" to="GH_J2" priority="-1">
        <lane id="GH_A2_0" index="0" speed="13.89" length="14.27" shape="-472.38,90.14 -470.56,104.29"/>
        <lane id="GH_A2_1" index="1" speed="13.89" length="14.27" shape="-475.55,90.55 -473.73,104.70"/>
    </edge>
    <edge id="GH_B1" from="GH_J1" to="gneJ179" priority="-1">
        <lane id="GH_B1_0" index="0" speed="13.89" length="20.75" shape="-468.79,88.61 -455.71,104.71"/>
    </edge>
    <edge id="GH_B2" from="GH_J2" to="gneJ179" priority="-1" length="15.00">
        <lane id="GH_B2_0" index="0" speed="13.89" length="15.00" shape="-464.57,109.55 -457.61,109.07"/>
        <lane id="GH_B2_1" index="1" speed="13.89" length="15.00" shape="-464.36,112.74 -457.39,112.26"/>
        <lane id="GH_B2_2" index="2" speed="13.89" length="15.00" shape="-464.14,115.93 -457.17,115.46"/>
    </edge>
    <edge id="GH_C" from="KL_J3" to="GH_J2" priority="-1" length="354.65" shape="147.71,68.60 2.26,85.76 -473.61,118.18">
        <lane id="GH_C_0" index="0" speed="13.89" length="354.65" shape="144.27,77.06 3.00,93.73 -463.48,125.51"/>
        <lane id="GH_C_1" index="1" speed="13.89" length="354.65" shape="143.89,73.88 2.70,90.54 -463.70,122.32"/>
        <lane id="GH_C_2" index="2" speed="13.89" length="354.65" shape="143.52,70.71 2.41,87.35 -463.92,119.12"/>
    </edge>
    <edge id="GH_C2" from="GH_J2" to="GH_J3" priority="-1">
        <lane id="GH_C2_0" index="0" speed="13.89" length="26.00" shape="-477.42,126.45 -503.36,128.18"/>
        <lane id="GH_C2_1" index="1" speed="13.89" length="26.00" shape="-477.64,123.26 -503.58,124.99"/>
        <lane id="GH_C2_2" index="2" speed="13.89" length="26.00" shape="-477.85,120.07 -503.79,121.80"/>
    </edge>
    <edge id="GH_E" from="gneJ170" to="GH_J3" priority="-1">
        <lane id="GH_E_0" index="0" speed="13.89" length="433.74" shape="-460.53,565.31 -511.55,134.58"/>
        <lane id="GH_E_1" index="1" speed="13.89" length="433.74" shape="-457.35,564.94 -508.37,134.21"/>
    </edge>
    <edge id="GH_F" from="GH_J3" to="gneJ160" priority="-1">
        <lane id="GH_F_0" index="0" speed="13.89" length="534.51" shape="-518.25,129.37 -1050.83,174.82"/>
        <lane id="GH_F_1" index="1" speed="13.89" length="534.51" shape="-518.52,126.18 -1051.10,171.63"/>
        <lane id="GH_F_2" index="2" speed="13.89" length="534.51" shape="-518.80,122.99 -1051.37,168.44"/>
    </edge>
    <edge id="GH_G" from="gneJ160" to="gneJ181" priority="-1">
        <lane id="GH_G_0" index="0" speed="13.89" length="521.09" shape="-1052.20,158.88 -533.02,114.25"/>
        <lane id="GH_G_1" index="1" speed="13.89" length="521.09" shape="-1051.92,162.07 -532.74,117.43"/>
        <lane id="GH_G_2" index="2" speed="13.89" length="521.09" shape="-1051.65,165.26 -532.47,120.62"/>
    </edge>
    <edge id="GH_G1" from="gneJ181" to="GH_J4" priority="-1">
        <lane id="GH_G1_0" index="0" speed="13.89" length="18.31" shape="-527.68,109.46 -519.87,92.90"/>
    </edge>
    <edge id="GH_G2" from="gneJ181" to="GH_J3" priority="-1" length="13.59">
        <lane id="GH_G2_0" index="0" speed="13.89" length="13.59" shape="-524.80,113.65 -519.62,113.28"/>
        <lane id="GH_G2_1" index="1" speed="13.89" length="13.59" shape="-524.58,116.84 -519.35,116.47"/>
        <lane id="GH_G2_2" index="2" speed="13.89" length="13.59" shape="-524.35,120.04 -519.08,119.66"/>
    </edge>
    <edge id="GH_G3" from="GH_J3" to="GH_J2" priority="-1" shape="-508.38,120.50 -491.39,119.37 -473.61,118.18">
        <lane id="GH_G3_0" index="0" speed="13.89" length="25.99" shape="-504.43,112.22 -491.92,111.39 -478.49,110.49"/>
        <lane id="GH_G3_1" index="1" speed="13.89" length="25.99" shape="-504.21,115.41 -491.71,114.58 -478.28,113.68"/>
        <lane id="GH_G3_2" index="2" speed="13.89" length="25.99" shape="-504.00,118.61 -491.50,117.77 -478.06,116.87"/>
    </edge>
    <edge id="GH_H1" from="GH_J3" to="GH_J4" priority="-1">
        <lane id="GH_H1_0" index="0" speed="13.89" length="13.79" shape="-514.60,107.26 -516.04,93.55"/>
        <lane id="GH_H1_1" index="1" speed="13.89" length="13.79" shape="-511.41,106.92 -512.85,93.21"/>
    </edge>
    <edge id="GH_H2" from="GH_J4" to="gneJ168" priority="-1">
        <lane id="GH_H2_0" index="0" speed="13.89" length="363.18" shape="-516.90,83.87 -580.17,-273.75"/>
        <lane id="GH_H2_1" index="1" speed="13.89" length="363.18" shape="-513.75,83.31 -577.02,-274.31"/>
    </edge>
    <edge id="KC_A1" from="gneJ137" to="KC_J2" priority="-1">
        <lane id="KC_A1_0" index="0" speed="13.89" length="681.46" shape="2170.68,518.19 1503.69,378.54"/>
        <lane id="KC_A1_1" index="1" speed="13.89" length="681.46" shape="2171.34,515.06 1504.34,375.41"/>
        <lane id="KC_A1_2" index="2" speed="13.89" length="681.46" shape="2171.99,511.93 1505.00,372.28"/>
    </edge>
    <edge id="KC_A2" from="KC_J2" to="KC_J3" priority="-1">
        <lane id="KC_A2_0" index="0" speed="13.89" length="26.29" shape="1486.39,374.92 1460.66,369.51"/>
        <lane id="KC_A2_1" index="1" speed="13.89" length="26.29" shape="1487.05,371.79 1461.32,366.38"/>
        <lane id="KC_A2_2" index="2" speed="13.89" length="26.29" shape="1487.70,368.66 1461.98,363.25"/>
    </edge>
    <edge id="KC_B" from="KC_J2" to="gneJ133" priority="-1">
        <lane id="KC_B_0" index="0" speed="13.89" length="403.06" shape="1496.63,382.96 1397.78,773.71"/>
        <lane id="KC_B_1" index="1" speed="13.89" length="403.06" shape="1493.53,382.17 1394.67,772.93"/>
        <lane id="KC_B_2" index="2" speed="13.89" length="403.06" shape="1490.42,381.39 1391.57,772.14"/>
    </edge>
    <edge id="KC_C" from="gneJ132" to="KC_J3" priority="-1">
        <lane id="KC_C_0" index="0" speed="13.89" length="403.17" shape="1349.11,763.61 1447.21,372.56"/>
        <lane id="KC_C_1" index="1" speed="13.89" length="403.17" shape="1352.21,764.39 1450.31,373.34"/>
        <lane id="KC_C_2" index="2" speed="13.89" length="403.17" shape="1355.32,765.17 1453.41,374.12"/>
    </edge>
    <edge id="KC_C1" from="KC_J3" to="KC_J4" priority="-1">
        <lane id="KC_C1_0" index="0" speed="13.89" length="13.30" shape="1451.53,355.13 1454.59,342.18"/>
        <lane id="KC_C1_1" index="1" speed="13.89" length="13.30" shape="1454.64,355.86 1457.70,342.92"/>
        <lane id="KC_C1_2" index="2" speed="13.89" length="13.30" shape="1457.75,356.60 1460.81,343.66"/>
    </edge>