<?xml version="1.0" ?>
<routes xmlns:xsi="http://www.w3.org/2001/XMLSchema-instance" xsi:noNamespaceSchemaLocation="http://sumo.dlr.de/xsd/routes_file.xsd">
   <vType id="veh1" laneChangeModel="LC2013" lcCooperative="5.0" lcKeepRight="3.0" lcSpeedGain="5.0" lcStrategic="10.0" length="4.00" maxSpeed="55.00" minGap="1.50" vClass="passenger"/>
   <vehicle depart="1.00" id="3" type="veh1">
      <route edges="GH_A1 GH_B1 KL_G1"/>
   </vehicle>
   <vehicle depart="1.00" id="4524" type="veh1">
      <route edges="KL_G1 KL_G2 KL_G3 YB_A2"/>
   </vehicle>
   <vehicle depart="2.00" id="12100" type="veh1">
      <route edges="KC_E1 KC_E2 KC_H"/>
   </vehicle>
   <vehicle depart="3.00" id="4396" type="veh1">
      <route edges="KL_C1 YB_A2"/>
   </vehicle>
   <vehicle depart="6.00" id="4431" type="veh1">
      <route edges="KL_C1 KL_C2 KL_E2 GH_C"/>
   </vehicle>
   <vehicle depart="6.00" id="4471" type="veh1">
      <route edges="KL_E1 KL_E2 GH_C"/>
   </vehicle>
   <vehicle depart="6.00" id="8705" type="veh1">
      <route edges="YB_E1 YB_E2 KL_E1"/>
   </vehicle>
   <vehicle depart="7.00" id="71" type="veh1">
      <route edges="GH_C GH_C2 GH_F"/>
   </vehicle>
   <vehicle depart="7.00" id="97" type="veh1">
      <route edges="GH_E GH_H1 GH_H2"/>
   </vehicle>
   <vehicle depart="7.00" id="4445" type="veh1">
      <route edges="KL_E1 KL_E2 GH_C"/>
   </vehicle>
   <vehicle depart="7.00" id="8727" type="veh1">
      <route edges="YB_E1 YB_E2 KL_E1"/>
   </vehicle>
   <vehicle depart="9.00" id="68" type="veh1">
      <route edges="GH_C GH_C2 GH_F"/>
   </vehicle>
   <vehicle depart="9.00" id="8728" type="veh1">
      <route edges="YB_E1 YB_E2 KL_E1"/>
   </vehicle>
   <vehicle depart="11.00" id="120" type="veh1">
      <route edges="GH_G GH_G2 GH_G3 GH_B2 KL_G1"/>
   </vehicle>
   <vehicle depart="13.00" id="4458" type="veh1">
      <route edges="KL_E1 KL_E2 GH_C"/>
   </vehicle>
   <vehicle depart="13.00" id="12077" type="veh1">
      <route edges="KC_A1 KC_A2 KC_C1 KC_F"/>
   </vehicle>
   <vehicle depart="14.00" id="4404" type="veh1">
      <route edges="KL_C1 YB_A2"/>
   </vehicle>
   <vehicle depart="14.00" id="8711" type="veh1">
      <route edges="YB_E1 YB_E2 KL_E1"/>
   </vehicle>
   <vehicle depart="15.00" id="85" type="veh1">
      <route edges="GH_C GH_C2 GH_H1 GH_H2"/>
   </vehicle>
   <vehicle depart="15.00" id="4406" type="veh1">
      <route edges="KL_C1 YB_A2"/>
   </vehicle>
   <vehicle depart="16.00" id="12061" type="veh1">
      <route edges="KC_A1 KC_A2 YB_E1"/>
   </vehicle>
   <vehicle depart="17.00" id="34" type="veh1">
      <route edges="GH_A1 GH_A2 GH_C2 GH_F"/>
   </vehicle>
   <vehicle depart="18.00" id="4439" type="veh1">
      <route edges="KL_E1 KL_E2 GH_C"/>
   </vehicle>
   <vehicle depart="18.00" id="12044" type="veh1">
      <route edges="KC_A1 KC_A2 YB_E1"/>
   </vehicle>
   <vehicle depart="19.00" id="60" type="veh1">
      <route edges="GH_C GH_C2 GH_F"/>
   </vehicle>
   <vehicle depart="19.00" id="4500" type="veh1">
      <route edges="KL_G1 KL_G2 KL_B"/>
   </vehicle>
   <vehicle depart="20.00" id="64" type="veh1">
      <route edges="GH_C GH_C2 GH_F"/>
   </vehicle>
   <vehicle depart="20.00" id="65" type="veh1">
      <route edges="GH_C GH_C2 GH_F"/>
   </vehicle>
   <vehicle depart="20.00" id="4413" type="veh1">
      <route edges="KL_C1 KL_C2 KL_E2 GH_C"/>
   </vehicle>
   <vehicle depart="22.00" id="4472" type="veh1">
      <route edges="KL_E1 KL_E2 GH_C"/>
   </vehicle>
   <vehicle depart="22.00" id="8704" type="veh1">
      <route edges="YB_E1 YB_E2 KL_E1"/>
   </vehicle>
   <vehicle depart="23.00" id="4420" type="veh1">
      <route edges="KL_C1 KL_C2 KL_E2 GH_C"/>
   </vehicle>
   <vehicle depart="25.00" id="8693" type="veh1">
      <route edges="YB_C YB_C2 YB_C1 YB_E2 KL_E1"/>
   </vehicle>
   <vehicle depart="27.00" id="4444" type="veh1">
      <route edges="KL_E1 KL_E2 GH_C"/>
   </vehicle>
   <vehicle depart="28.00" id="8717" type="veh1">
      <route edges="YB_E1 YB_E2 KL_E1"/>
   </vehicle>
   <vehicle depart="28.00" id="8720" type="veh1">
      <route edges="YB_E1 YB_E2 KL_E1"/>
   </vehicle>
   <vehicle depart="29.00" id="67" type="veh1">
      <route edges="GH_C GH_C2 GH_F"/>
   </vehicle>
   <vehicle depart="29.00" id="4393" type="veh1">
      <route edges="KL_C1 YB_A2"/>
   </vehicle>
   <vehicle depart="29.00" id="4462" type="veh1">
      <route edges="KL_E1 KL_E2 GH_C"/>
   </vehicle>
   <vehicle depart="29.00" id="8690" type="veh1">
      <route edges="YB_C YB_C2 YB_C1 YB_E2 KL_E1"/>
   </vehicle>
   <vehicle depart="30.00" id="8683" type="veh1">
      <route edges="YB_C YB_C4 KC_E1"/>
   </vehicle>
   <vehicle depart="31.00" id="8721" type="veh1">
      <route edges="YB_E1 YB_E2 KL_E1"/>
   </vehicle>
   <vehicle depart="32.00" id="125" type="veh1">
      <route edges="GH_G GH_G2 GH_G3 GH_B2 KL_G1"/>
   </vehicle>
   <vehicle depart="33.00" id="8702" type="veh1">
      <route edges="YB_C YB_C2 YB_C1 YB_E2 YB_G1 YB_B"/>
   </vehicle>
   <vehicle depart="35.00" id="4425" type="veh1">
      <route edges="KL_C1 KL_C2 KL_E2 GH_C"/>
   </vehicle>
   <vehicle depart="35.00" id="8691" type="veh1">
      <route edges="YB_C YB_C2 YB_C1 YB_E2 KL_E1"/>
   </vehicle>
   <vehicle depart="36.00" id="10" type="veh1">
      <route edges="GH_A1 GH_B1 KL_G1"/>
   </vehicle>
   <vehicle depart="37.00" id="37" type="veh1">
      <route edges="GH_A1 GH_A2 GH_C2 GH_F"/>
   </vehicle>
   <vehicle depart="38.00" id="7" type="veh1">
      <route edges="GH_A1 GH_B1 KL_G1"/>
   </vehicle>
   <vehicle depart="38.00" id="8703" type="veh1">
      <route edges="YB_C YB_C2 YB_C1 YB_E2 YB_G1 YB_B"/>
   </vehicle>
   <vehicle depart="38.00" id="12093" type="veh1">
      <route edges="KC_E1 KC_E2 KC_H"/>
   </vehicle>
   <vehicle depart="39.00" id="12070" type="veh1">
      <route edges="KC_A1 KC_A2 YB_E1"/>
   </vehicle>
   <vehicle depart="39.00" id="12109" type="veh1">
      <route edges="KC_G KC_G1 KC_B"/>
   </vehicle>
   <vehicle depart="40.00" id="8692" type="veh1">
      <route edges="YB_C YB_C2 YB_C1 YB_E2 KL_E1"/>
   </vehicle>
   <vehicle depart="42.00" id="8678" type="veh1">
      <route edges="YB_A2 YB_A1 YB_C1 YB_F"/>
   </vehicle>
   <vehicle depart="42.00" id="12063" type="veh1">
      <route edges="KC_A1 KC_A2 YB_E1"/>
   </vehicle>
   <vehicle depart="45.00" id="90" type="veh1">
      <route edges="GH_C GH_C2 GH_H1 GH_H2"/>
   </vehicle>
   <vehicle depart="45.00" id="12090" type="veh1">
      <route edges="KC_E1 KC_E2 KC_H"/>
   </vehicle>
   <vehicle depart="47.00" id="128" type="veh1">
      <route edges="GH_G GH_G2 GH_G3 GH_B2 KL_G1"/>
   </vehicle>
   <vehicle depart="47.00" id="4489" type="veh1">
      <route edges="KL_E1 KL_E2 KL_E3 KL_G2 KL_B"/>
   </vehicle>
   <vehicle depart="47.00" id="8674" type="veh1">
      <route edges="YB_A2 YB_A1 YB_C3 KC_E1"/>
   </vehicle>
   <vehicle depart="47.00" id="12034" type="veh1">
      <route edges="KC_A1 KC_B"/>
   </vehicle>
   <vehicle depart="47.00" id="12066" type="veh1">
      <route edges="KC_A1 KC_A2 YB_E1"/>
   </vehicle>
   <vehicle depart="49.00" id="4438" type="veh1">
      <route edges="KL_E1 KL_E2 GH_C"/>
   </vehicle>
   <vehicle depart="50.00" id="8712" type="veh1">
      <route edges="YB_E1 YB_E2 KL_E1"/>
   </vehicle>
   <vehicle depart="52.00" id="8667" type="veh1">
      <route edges="YB_A2 YB_A1 YB_C3 KC_E1"/>
   </vehicle>
   <vehicle depart="52.00" id="8675" type="veh1">
      <route edges="YB_A2 YB_A1 YB_C1 YB_F"/>
   </vehicle>
   <vehicle depart="52.00" id="8736" type="veh1">
      <route edges="YB_G YB_G1 YB_B"/>
   </vehicle>
   <vehicle depart="54.00" id="78" type="veh1">
      <route edges="GH_C GH_C2 GH_H1 GH_H2"/>
   </vehicle>
   <vehicle depart="54.00" id="4529" type="veh1">
      <route edges="KL_G1 KL_G2 KL_G3 YB_A2"/>
   </vehicle>
   <vehicle depart="55.00" id="8706" type="veh1">
      <route edges="YB_E1 YB_E2 KL_E1"/>
   </vehicle>
   <vehicle depart="57.00" id="63" type="veh1">
      <route edges="GH_C GH_C2 GH_F"/>
   </vehicle>
   <vehicle depart="57.00" id="12073" type="veh1">
      <route edges="KC_A1 KC_A2 YB_E1"/>
   </vehicle>
   <vehicle depart="58.00" id="33" type="veh1">
      <route edges="GH_A1 GH_A2 GH_C2 GH_F"/>
   </vehicle>
   <vehicle depart="58.00" id="4441" type="veh1">
      <route edges="KL_E1 KL_E2 GH_C"/>
   </vehicle>
   <vehicle depart="59.00" id="42" type="veh1">
      <route edges="GH_A1 GH_A2 GH_C2 GH_F"/>
   </vehicle>
   <vehicle depart="59.00" id="4400" type="veh1">
      <route edges="KL_C1 YB_A2"/>
   </vehicle>
   <vehicle depart="59.00" id="4488" type="veh1">
      <route edges="KL_E1 KL_E2 KL_E3 KL_G2 KL_B"/>
   </vehicle>
   <vehicle depart="59.00" id="12049" type="veh1">
      <route edges="KC_A1 KC_A2 YB_E1"/>
   </vehicle>
   <vehicle depart="60.00" id="83" type="veh1">
      <route edges="GH_C GH_C2 GH_H1 GH_H2"/>
   </vehicle>
   <vehicle depart="60.00" id="4398" type="veh1">
      <route edges="KL_C1 YB_A2"/>
   </vehicle>
   <vehicle depart="61.00" id="4417" type="veh1">
      <route edges="KL_C1 KL_C2 KL_E2 GH_C"/>
   </vehicle>
   <vehicle depart="62.00" id="72" type="veh1">
      <route edges="GH_C GH_C2 GH_F"/>
   </vehicle>
   <vehicle depart="63.00" id="4414" type="veh1">
      <route edges="KL_C1 KL_C2 KL_E2 GH_C"/>
   </vehicle>
   <vehicle depart="68.00" id="75" type="veh1">
      <route edges="GH_C GH_C2 GH_H1 GH_H2"/>
   </vehicle>
   <vehicle depart="68.00" id="12098" type="veh1">
      <route edges="KC_E1 KC_E2 KC_H"/>
   </vehicle>
   <vehicle depart="69.00" id="27" type="veh1">
      <route edges="GH_A1 GH_B1 KL_G1"/>
   </vehicle>
   <vehicle depart="69.00" id="8684" type="veh1">
      <route edges="YB_C YB_C2 YB_C1 YB_F"/>
   </vehicle>
   <vehicle depart="71.00" id="77" type="veh1">
      <route edges="GH_C GH_C2 GH_H1 GH_H2"/>
   </vehicle>
   <vehicle depart="71.00" id="12038" type="veh1">
      <route edges="KC_A1 KC_A2 YB_E1"/>
   </vehicle>
   <vehicle depart="71.00" id="12052" type="veh1">
      <route edges="KC_A1 KC_A2 YB_E1"/>
   </vehicle>
   <vehicle depart="71.00" id="12065" type="veh1">
      <route edges="KC_A1 KC_A2 YB_E1"/>
   </vehicle>
   <vehicle depart="72.00" id="91" type="veh1">
      <route edges="GH_C GH_C2 GH_H1 GH_H2"/>
   </vehicle>
   <vehicle depart="72.00" id="113" type="veh1">
      <route edges="GH_G GH_G2 GH_G3 GH_B2 KL_G1"/>
   </vehicle>
   <vehicle depart="72.00" id="12064" type="veh1">
      <route edges="KC_A1 KC_A2 YB_E1"/>
   </vehicle>
   <vehicle depart="77.00" id="12" type="veh1">
      <route edges="GH_A1 GH_B1 KL_G1"/>
   </vehicle>
   <vehicle depart="77.00" id="4502" type="veh1">
      <route edges="KL_G1 KL_G2 KL_B"/>
   </vehicle>
   <vehicle depart="81.00" id="12040" type="veh1">
      <route edges="KC_A1 KC_A2 YB_E1"/>
   </vehicle>
   <vehicle depart="83.00" id="121" type="veh1">
      <route edges="GH_G GH_G2 GH_G3 GH_B2 KL_G1"/>
   </vehicle>
   <vehicle depart="83.00" id="4523" type="veh1">
      <route edges="KL_G1 KL_G2 KL_G3 YB_A2"/>
   </vehicle>
   <vehicle depart="84.00" id="4474" type="veh1">
      <route edges="KL_E1 KL_E2 GH_C"/>
   </vehicle>
   <vehicle depart="85.00" id="80" type="veh1">
      <route edges="GH_C GH_C2 GH_H1 GH_H2"/>
   </vehicle>
   <vehicle depart="86.00" id="4468" type="veh1">
      <route edges="KL_E1 KL_E2 GH_C"/>
   </vehicle>
   <vehicle depart="86.00" id="4491" type="veh1">
      <route edges="KL_E1 KL_E2 KL_E3 KL_G2 KL_B"/>
   </vehicle>
   <vehicle depart="86.00" id="8707" type="veh1">
      <route edges="YB_E1 YB_E2 KL_E1"/>
   </vehicle>
   <vehicle depart="87.00" id="8" type="veh1">
      <route edges="GH_A1 GH_B1 KL_G1"/>
   </vehicle>
   <vehicle depart="87.00" id="12091" type="veh1">
      <route edges="KC_E1 KC_E2 KC_H"/>
   </vehicle>
   <vehicle depart="88.00" id="28" type="veh1">
      <route edges="GH_A1 GH_B1 KL_G1"/>
   </vehicle>
   <vehicle depart="88.00" id="8709" type="veh1">
      <route edges="YB_E1 YB_E2 KL_E1"/>
   </vehicle>
   <vehicle depart="88.00" id="8733" type="veh1">
      <route edges="YB_G KL_E1"/>
   </vehicle>
   <vehicle depart="89.00" id="4467" type="veh1">
      <route edges="KL_E1 KL_E2 GH_C"/>
   </vehicle>
   <vehicle depart="89.00" id="4532" type="veh1">
      <route edges="KL_G1 KL_G2 KL_G3 YB_A2"/>
   </vehicle>
   <vehicle depart="89.00" id="8672" type="veh1">
      <route edges="YB_A2 YB_A1 YB_C3 KC_E1"/>
   </vehicle>
   <vehicle depart="89.00" id="8710" type="veh1">
      <route edges="YB_E1 YB_E2 KL_E1"/>
   </vehicle>
   <vehicle depart="91.00" id="41" type="veh1">
      <route edges="GH_A1 GH_A2 GH_C2 GH_F"/>
   </vehicle>
   <vehicle depart="92.00" id="100" type="veh1">
      <route edges="GH_E GH_G3 GH_B2 KL_G1"/>
   </vehicle>
   <vehicle depart="92.00" id="8659" type="veh1">
      <route edges="YB_A2 YB_A1 YB_C3 KC_E1"/>
   </vehicle>
   <vehicle depart="92.00" id="12047" type="veh1">
      <route edges="KC_A1 KC_A2 YB_E1"/>
   </vehicle>
   <vehicle depart="93.00" id="8653" type="veh1">
      <route edges="YB_A2 YB_B"/>
   </vehicle>
   <vehicle depart="95.00" id="73" type="veh1">
      <route edges="GH_C GH_C2 GH_F"/>
   </vehicle>
   <vehicle depart="95.00" id="123" type="veh1">
      <route edges="GH_G GH_G2 GH_G3 GH_B2 KL_G1"/>
   </vehicle>
   <vehicle depart="95.00" id="4461" type="veh1">
      <route edges="KL_E1 KL_E2 GH_C"/>
   </vehicle>
   <vehicle depart="95.00" id="4479" type="veh1">
      <route edges="KL_E1 KL_E2 KL_E3 KL_G2 KL_B"/>
   </vehicle>
   <vehicle depart="96.00" id="108" type="veh1">
      <route edges="GH_G GH_G2 GH_G3 GH_B2 KL_G1"/>
   </vehicle>
   <vehicle depart="96.00" id="4470" type="veh1">
      <route edges="KL_E1 KL_E2 GH_C"/>
   </vehicle>
   <vehicle depart="97.00" id="92" type="veh1">
      <route edges="GH_C GH_C2 GH_H1 GH_H2"/>
   </vehicle>
   <vehicle depart="97.00" id="8724" type="veh1">
      <route edges="YB_E1 YB_E2 KL_E1"/>
   </vehicle>
   <vehicle depart="98.00" id="117" type="veh1">
      <route edges="GH_G GH_G2 GH_G3 GH_B2 KL_G1"/>
   </vehicle>
   <vehicle depart="98.00" id="4401" type="veh1">
      <route edges="KL_C1 YB_A2"/>
   </vehicle>
   <vehicle depart="100.00" id="4449" type="veh1">
      <route edges="KL_E1 KL_E2 GH_C"/>
   </vehicle>
   <vehicle depart="100.00" id="4478" type="veh1">
      <route edges="KL_E1 KL_E2 KL_E3 KL_G2 KL_B"/>
   </vehicle>
   <vehicle depart="100.00" id="8679" type="veh1">
      <route edges="YB_A2 YB_A1 YB_C1 YB_F"/>
   </vehicle>
   <vehicle depart="101.00" id="4397" type="veh1">
      <route edges="KL_C1 YB_A2"/>
   </vehicle>
   <vehicle depart="101.00" id="12036" type="veh1">
      <route edges="KC_A1 KC_B"/>
   </vehicle>
   <vehicle depart="102.00" id="8686" type="veh1">
      <route edges="YB_C YB_C2 YB_C1 YB_F"/>
   </vehicle>
   <vehicle depart="102.00" id="12031" type="veh1">
      <route edges="KC_A1 KC_B"/>
   </vehicle>
   <vehicle depart="104.00" id="4519" type="veh1">
      <route edges="KL_G1 KL_G2 KL_G3 YB_A2"/>
   </vehicle>
   <vehicle depart="105.00" id="43" type="veh1">
      <route edges="GH_A1 GH_A2 GH_C2 GH_F"/>
   </vehicle>
   <vehicle depart="106.00" id="4465" type="veh1">
      <route edges="KL_E1 KL_E2 GH_C"/>
   </vehicle>
   <vehicle depart="109.00" id="8701" type="veh1">
      <route edges="YB_C YB_C2 YB_C1 YB_E2 YB_G1 YB_B"/>
   </vehicle>
   <vehicle depart="110.00" id="4423" type="veh1">
      <route edges="KL_C1 KL_C2 KL_E2 GH_C"/>
   </vehicle>
   <vehicle depart="113.00" id="12081" type="veh1">
      <route edges="KC_C YB_E1"/>
   </vehicle>
   <vehicle depart="114.00" id="58" type="veh1">
      <route edges="GH_C GH_C2 GH_F"/>
   </vehicle>
   <vehicle depart="114.00" id="8714" type="veh1">
      <route edges="YB_E1 YB_E2 KL_E1"/>
   </vehicle>
   <vehicle depart="114.00" id="12101" type="veh1">
      <route edges="KC_E1 KC_E2 KC_G1 KC_B"/>
   </vehicle>
   <vehicle depart="115.00" id="26" type="veh1">
      <route edges="GH_A1 GH_B1 KL_G1"/>
   </vehicle>
   <vehicle depart="115.00" id="12042" type="veh1">
      <route edges="KC_A1 KC_A2 YB_E1"/>
   </vehicle>
   <vehicle depart="116.00" id="4475" type="veh1">
      <route edges="KL_E1 KL_E2 GH_C"/>
   </vehicle>
   <vehicle depart="116.00" id="8681" type="veh1">
      <route edges="YB_A2 YB_A1 YB_C1 YB_E2 KL_E1"/>
   </vehicle>
   <vehicle depart="116.00" id="8731" type="veh1">
      <route edges="YB_E1 YB_E2 YB_G1 YB_B"/>
   </vehicle>
   <vehicle depart="117.00" id="4442" type="veh1">
      <route edges="KL_E1 KL_E2 GH_C"/>
   </vehicle>
   <vehicle depart="118.00" id="86" type="veh1">
      <route edges="GH_C GH_C2 GH_H1 GH_H2"/>
   </vehicle>
   <vehicle depart="118.00" id="4426" type="veh1">
      <route edges="KL_C1 KL_C2 KL_E2 GH_C"/>
   </vehicle>
   <vehicle depart="120.00" id="61" type="veh1">
      <route edges="GH_C GH_C2 GH_F"/>
   </vehicle>
   <vehicle depart="120.00" id="8734" type="veh1">
      <route edges="YB_G KL_E1"/>
   </vehicle>
   <vehicle depart="121.00" id="59" type="veh1">
      <route edges="GH_C GH_C2 GH_F"/>
   </vehicle>
   <vehicle depart="121.00" id="4446" type="veh1">
      <route edges="KL_E1 KL_E2 GH_C"/>
   </vehicle>
   <vehicle depart="121.00" id="4494" type="veh1">
      <route edges="KL_G1 KL_G2 KL_B"/>
   </vehicle>
   <vehicle depart="121.00" id="12058" type="veh1">
      <route edges="KC_A1 KC_A2 YB_E1"/>
   </vehicle>
   <vehicle depart="122.00" id="8687" type="veh1">
      <route edges="YB_C YB_C2 YB_C1 YB_F"/>
   </vehicle>
   <vehicle depart="123.00" id="4522" type="veh1">
      <route edges="KL_G1 KL_G2 KL_G3 YB_A2"/>
   </vehicle>
   <vehicle depart="124.00" id="4517" type="veh1">
      <route edges="KL_G1 KL_G2 KL_B"/>
   </vehicle>
   <vehicle depart="126.00" id="4453" type="veh1">
      <route edges="KL_E1 KL_E2 GH_C"/>
   </vehicle>
   <vehicle depart="126.00" id="4515" type="veh1">
      <route edges="KL_G1 KL_G2 KL_B"/>
   </vehicle>
   <vehicle depart="126.00" id="12060" type="veh1">
      <route edges="KC_A1 KC_A2 YB_E1"/>
   </vehicle>
   <vehicle depart="126.00" id="12084" type="veh1">
      <route edges="KC_E1 KC_F"/>
   </vehicle>
   <vehicle depart="127.00" id="4440" type="veh1">
      <route edges="KL_E1 KL_E2 GH_C"/>
   </vehicle>
   <vehicle depart="128.00" id="4410" type="veh1">
      <route edges="KL_C1 KL_C2 KL_E2 GH_C"/>
   </vehicle>
   <vehicle depart="128.00" id="8663" type="veh1">
      <route edges="YB_A2 YB_A1 YB_C3 KC_E1"/>
   </vehicle>
   <vehicle depart="131.00" id="50" type="veh1">
      <route edges="GH_C GH_C2 GH_F"/>
   </vehicle>
   <vehicle depart="131.00" id="4443" type="veh1">
      <route edges="KL_E1 KL_E2 GH_C"/>
   </vehicle>
   <vehicle depart="131.00" id="12059" type="veh1">
      <route edges="KC_A1 KC_A2 YB_E1"/>
   </vehicle>
   <vehicle depart="131.00" id="12103" type="veh1">
      <route edges="KC_E1 KC_E2 KC_G1 KC_B"/>
   </vehicle>
   <vehicle depart="132.00" id="54" type="veh1">
      <route edges="GH_C GH_C2 GH_F"/>
   </vehicle>
   <vehicle depart="134.00" id="4521" type="veh1">
      <route edges="KL_G1 KL_G2 KL_G3 YB_A2"/>
   </vehicle>
   <vehicle depart="134.00" id="8661" type="veh1">
      <route edges="YB_A2 YB_A1 YB_C3 KC_E1"/>
   </vehicle>
   <vehicle depart="137.00" id="24" type="veh1">
      <route edges="GH_A1 GH_B1 KL_G1"/>
   </vehicle>
   <vehicle depart="137.00" id="25" type="veh1">
      <route edges="GH_A1 GH_B1 KL_G1"/>
   </vehicle>
   <vehicle depart="137.00" id="8723" type="veh1">
      <route edges="YB_E1 YB_E2 KL_E1"/>
   </vehicle>
   <vehicle depart="137.00" id="12046" type="veh1">
      <route edges="KC_A1 KC_A2 YB_E1"/>
   </vehicle>
   <vehicle depart="138.00" id="1" type="veh1">
      <route edges="GH_A1 GH_B1 KL_G1"/>
   </vehicle>
   <vehicle depart="138.00" id="95" type="veh1">
      <route edges="GH_C GH_C2 GH_H1 GH_H2"/>
   </vehicle>
   <vehicle depart="139.00" id="4409" type="veh1">
      <route edges="KL_C1 KL_C2 KL_E2 GH_C"/>
   </vehicle>
   <vehicle depart="139.00" id="8700" type="veh1">
      <route edges="YB_C YB_C2 YB_C1 YB_E2 YB_G1 YB_B"/>
   </vehicle>
   <vehicle depart="140.00" id="8718" type="veh1">
      <route edges="YB_E1 YB_E2 KL_E1"/>
   </vehicle>
   <vehicle depart="144.00" id="4411" type="veh1">
      <route edges="KL_C1 KL_C2 KL_E2 GH_C"/>
   </vehicle>
   <vehicle depart="144.00" id="12106" type="veh1">
      <route edges="KC_G KC_G1 KC_B"/>
   </vehicle>
   <vehicle depart="146.00" id="4508" type="veh1">
      <route edges="KL_G1 KL_G2 KL_B"/>
   </vehicle>
   <vehicle depart="146.00" id="12092" type="veh1">
      <route edges="KC_E1 KC_E2 KC_H"/>
   </vehicle>
   <vehicle depart="147.00" id="12082" type="veh1">
      <route edges="KC_C KC_C1 KC_F"/>
   </vehicle>
   <vehicle depart="148.00" id="4451" type="veh1">
      <route edges="KL_E1 KL_E2 GH_C"/>
   </vehicle>
   <vehicle depart="148.00" id="4459" type="veh1">
      <route edges="KL_E1 KL_E2 GH_C"/>
   </vehicle>
   <vehicle depart="148.00" id="4477" type="veh1">
      <route edges="KL_E1 KL_E2 KL_E3 KL_G2 KL_B"/>
   </vehicle>
   <vehicle depart="149.00" id="2" type="veh1">
      <route edges="GH_A1 GH_B1 KL_G1"/>
   </vehicle>
   <vehicle depart="149.00" id="4433" type="veh1">
      <route edges="KL_C1 KL_C2 KL_E2 GH_C"/>
   </vehicle>
   <vehicle depart="150.00" id="98" type="veh1">
      <route edges="GH_E GH_H1 GH_H2"/>
   </vehicle>
   <vehicle depart="152.00" id="4418" type="veh1">
      <route edges="KL_C1 KL_C2 KL_E2 GH_C"/>
   </vehicle>
   <vehicle depart="153.00" id="4437" type="veh1">
      <route edges="KL_C1 KL_C2 KL_E2 KL_E3 KL_G2 KL_B"/>
   </vehicle>
   <vehicle depart="155.00" id="4501" type="veh1">
      <route edges="KL_G1 KL_G2 KL_B"/>
   </vehicle>
   <vehicle depart="155.00" id="12079" type="veh1">
      <route edges="KC_A1 KC_A2 KC_C1 KC_F"/>
   </vehicle>
   <vehicle depart="156.00" id="116" type="veh1">
      <route edges="GH_G GH_G2 GH_G3 GH_B2 KL_G1"/>
   </vehicle>
   <vehicle depart="156.00" id="8658" type="veh1">
      <route edges="YB_A2 YB_A1 YB_C3 KC_E1"/>
   </vehicle>
   <vehicle depart="158.00" id="56" type="veh1">
      <route edges="GH_C GH_C2 GH_F"/>
   </vehicle>
   <vehicle depart="158.00" id="8725" type="veh1">
      <route edges="YB_E1 YB_E2 KL_E1"/>
   </vehicle>
   <vehicle depart="159.00" id="9" type="veh1">
      <route edges="GH_A1 GH_B1 KL_G1"/>
   </vehicle>
   <vehicle depart="159.00" id="4492" type="veh1">
      <route edges="KL_G1 KL_G2 KL_B"/>
   </vehicle>
   <vehicle depart="161.00" id="12056" type="veh1">
      <route edges="KC_A1 KC_A2 YB_E1"/>
   </vehicle>
   <vehicle depart="162.00" id="70" type="veh1">
      <route edges="GH_C GH_C2 GH_F"/>
   </vehicle>
   <vehicle depart="163.00" id="4513" type="veh1">
      <route edges="KL_G1 KL_G2 KL_B"/>
   </vehicle>
   <vehicle depart="164.00" id="12083" type="veh1">
      <route edges="KC_C KC_C1 KC_F"/>
   </vehicle>
   <vehicle depart="165.00" id="12072" type="veh1">
      <route edges="KC_A1 KC_A2 YB_E1"/>
   </vehicle>
   <vehicle depart="166.00" id="4435" type="veh1">
      <route edges="KL_C1 KL_C2 KL_E2 GH_C"/>
   </vehicle>
   <vehicle depart="166.00" id="8694" type="veh1">
      <route edges="YB_C YB_C2 YB_C1 YB_E2 KL_E1"/>
   </vehicle>
   <vehicle depart="166.00" id="12074" type="veh1">
      <route edges="KC_A1 KC_A2 YB_E1"/>
   </vehicle>
   <vehicle depart="167.00" id="4424" type="veh1">
      <route edges="KL_C1 KL_C2 KL_E2 GH_C"/>
   </vehicle>
   <vehicle depart="167.00" id="4476" type="veh1">
      <route edges="KL_E1 KL_E2 GH_C"/>
   </vehicle>
   <vehicle depart="168.00" id="4408" type="veh1">
      <route edges="KL_C1 KL_C2 KL_E2 GH_C"/>
   </vehicle>
   <vehicle depart="169.00" id="46" type="veh1">
      <route edges="GH_C GH_C2 GH_F"/>
   </vehicle>
   <vehicle depart="169.00" id="8665" type="veh1">
      <route edges="YB_A2 YB_A1 YB_C3 KC_E1"/>
   </vehicle>
   <vehicle depart="169.00" id="12054" type="veh1">
      <route edges="KC_A1 KC_A2 YB_E1"/>
   </vehicle>
   <vehicle depart="170.00" id="35" type="veh1">
      <route edges="GH_A1 GH_A2 GH_C2 GH_F"/>
   </vehicle>
   <vehicle depart="170.00" id="8688" type="veh1">
      <route edges="YB_C YB_C2 YB_C1 YB_F"/>
   </vehicle>
   <vehicle depart="172.00" id="8654" type="veh1">
      <route edges="YB_A2 YB_B"/>
   </vehicle>
   <vehicle depart="174.00" id="44" type="veh1">
      <route edges="GH_A1 GH_A2 GH_C2 GH_F"/>
   </vehicle>
   <vehicle depart="174.00" id="4403" type="veh1">
      <route edges="KL_C1 YB_A2"/>
   </vehicle>
   <vehicle depart="175.00" id="13" type="veh1">
      <route edges="GH_A1 GH_B1 KL_G1"/>
   </vehicle>
   <vehicle depart="175.00" id="82" type="veh1">
      <route edges="GH_C GH_C2 GH_H1 GH_H2"/>
   </vehicle>
   <vehicle depart="175.00" id="8668" type="veh1">
      <route edges="YB_A2 YB_A1 YB_C3 KC_E1"/>
   </vehicle>
   <vehicle depart="176.00" id="4405" type="veh1">
      <route edges="KL_C1 YB_A2"/>
   </vehicle>
   <vehicle depart="178.00" id="81" type="veh1">
      <route edges="GH_C GH_C2 GH_H1 GH_H2"/>
   </vehicle>
   <vehicle depart="180.00" id="4469" type="veh1">
      <route edges="KL_E1 KL_E2 GH_C"/>
   </vehicle>
   <vehicle depart="181.00" id="8695" type="veh1">
      <route edges="YB_C YB_C2 YB_C1 YB_E2 KL_E1"/>
   </vehicle>
   <vehicle depart="181.00" id="12035" type="veh1">
      <route edges="KC_A1 KC_B"/>
   </vehicle>
   <vehicle depart="181.00" id="12037" type="veh1">
      <route edges="KC_A1 KC_B"/>
   </vehicle>
   <vehicle depart="182.00" id="14" type="veh1">
      <route edges="GH_A1 GH_B1 KL_G1"/>
   </vehicle>
   <vehicle depart="182.00" id="93" type="veh1">
      <route edges="GH_C GH_C2 GH_H1 GH_H2"/>
   </vehicle>
   <vehicle depart="182.00" id="12062" type="veh1">
      <route edges="KC_A1 KC_A2 YB_E1"/>
   </vehicle>
   <vehicle depart="183.00" id="88" type="veh1">
      <route edges="GH_C GH_C2 GH_H1 GH_H2"/>
   </vehicle>
   <vehicle depart="184.00" id="62" type="veh1">
      <route edges="GH_C GH_C2 GH_F"/>
   </vehicle>
   <vehicle depart="184.00" id="4452" type="veh1">
      <route edges="KL_E1 KL_E2 GH_C"/>
   </vehicle>
   <vehicle depart="185.00" id="4394" type="veh1">
      <route edges="KL_C1 YB_A2"/>
   </vehicle>
   <vehicle depart="186.00" id="8726" type="veh1">
      <route edges="YB_E1 YB_E2 KL_E1"/>
   </vehicle>
   <vehicle depart="187.00" id="4518" type="veh1">
      <route edges="KL_G1 KL_G2 KL_B"/>
   </vehicle>
   <vehicle depart="189.00" id="17" type="veh1">
      <route edges="GH_A1 GH_B1 KL_G1"/>
   </vehicle>
   <vehicle depart="189.00" id="12045" type="veh1">
      <route edges="KC_A1 KC_A2 YB_E1"/>
   </vehicle>
   <vehicle depart="190.00" id="4495" type="veh1">
      <route edges="KL_G1 KL_G2 KL_B"/>
   </vehicle>
   <vehicle depart="191.00" id="12102" type="veh1">
      <route edges="KC_E1 KC_E2 KC_G1 KC_B"/>
   </vehicle>
   <vehicle depart="195.00" id="4415" type="veh1">
      <route edges="KL_C1 KL_C2 KL_E2 GH_C"/>
   </vehicle>
   <vehicle depart="196.00" id="115" type="veh1">
      <route edges="GH_G GH_G2 GH_G3 GH_B2 KL_G1"/>
   </vehicle>
   <vehicle depart="196.00" id="4485" type="veh1">
      <route edges="KL_E1 KL_E2 KL_E3 KL_G2 KL_B"/>
   </vehicle>
   <vehicle depart="196.00" id="8689" type="veh1">
      <route edges="YB_C YB_C2 YB_C1 YB_F"/>
   </vehicle>
   <vehicle depart="197.00" id="118" type="veh1">
      <route edges="GH_G GH_G2 GH_G3 GH_B2 KL_G1"/>
   </vehicle>
   <vehicle depart="198.00" id="119" type="veh1">
      <route edges="GH_G GH_G2 GH_G3 GH_B2 KL_G1"/>
   </vehicle>
   <vehicle depart="201.00" id="4512" type="veh1">
      <route edges="KL_G1 KL_G2 KL_B"/>
   </vehicle>
   <vehicle depart="201.00" id="8685" type="veh1">
      <route edges="YB_C YB_C2 YB_C1 YB_F"/>
   </vehicle>
   <vehicle depart="202.00" id="12075" type="veh1">
      <route edges="KC_A1 KC_A2 YB_E1"/>
   </vehicle>
   <vehicle depart="203.00" id="8713" type="veh1">
      <route edges="YB_E1 YB_E2 KL_E1"/>
   </vehicle>
   <vehicle depart="204.00" id="4427" type="veh1">
      <route edges="KL_C1 KL_C2 KL_E2 GH_C"/>
   </vehicle>
   <vehicle depart="204.00" id="4482" type="veh1">
      <route edges="KL_E1 KL_E2 KL_E3 KL_G2 KL_B"/>
   </vehicle>
   <vehicle depart="205.00" id="4464" type="veh1">
      <route edges="KL_E1 KL_E2 GH_C"/>
   </vehicle>
   <vehicle depart="206.00" id="4432" type="veh1">
      <route edges="KL_C1 KL_C2 KL_E2 GH_C"/>
   </vehicle>
   <vehicle depart="206.00" id="12041" type="veh1">
      <route edges="KC_A1 KC_A2 YB_E1"/>
   </vehicle>
   <vehicle depart="207.00" id="69" type="veh1">
      <route edges="GH_C GH_C2 GH_F"/>
   </vehicle>
   <vehicle depart="207.00" id="4455" type="veh1">
      <route edges="KL_E1 KL_E2 GH_C"/>
   </vehicle>
   <vehicle depart="207.00" id="12089" type="veh1">
      <route edges="KC_E1 KC_E2 KC_H"/>
   </vehicle>
   <vehicle depart="208.00" id="103" type="veh1">
      <route edges="GH_G GH_G1 GH_H2"/>
   </vehicle>
   <vehicle depart="208.00" id="8662" type="veh1">
      <route edges="YB_A2 YB_A1 YB_C3 KC_E1"/>
   </vehicle>
   <vehicle depart="208.00" id="8719" type="veh1">
      <route edges="YB_E1 YB_E2 KL_E1"/>
   </vehicle>
   <vehicle depart="208.00" id="12053" type="veh1">
      <route edges="KC_A1 KC_A2 YB_E1"/>
   </vehicle>
   <vehicle depart="209.00" id="4480" type="veh1">
      <route edges="KL_E1 KL_E2 KL_E3 KL_G2 KL_B"/>
   </vehicle>
   <vehicle depart="210.00" id="4463" type="veh1">
      <route edges="KL_E1 KL_E2 GH_C"/>
   </vehicle>
   <vehicle depart="212.00" id="22" type="veh1">
      <route edges="GH_A1 GH_B1 KL_G1"/>
   </vehicle>
   <vehicle depart="212.00" id="4447" type="veh1">
      <route edges="KL_E1 KL_E2 GH_C"/>
   </vehicle>
   <vehicle depart="212.00" id="8669" type="veh1">
      <route edges="YB_A2 YB_A1 YB_C3 KC_E1"/>
   </vehicle>
   <vehicle depart="213.00" id="8680" type="veh1">
      <route edges="YB_A2 YB_A1 YB_C1 YB_F"/>
   </vehicle>
   <vehicle depart="214.00" id="89" type="veh1">
      <route edges="GH_C GH_C2 GH_H1 GH_H2"/>
   </vehicle>
   <vehicle depart="214.00" id="4499" type="veh1">