<?xml version="1.0" ?>
<routes xmlns:xsi="http://www.w3.org/2001/XMLSchema-instance" xsi:noNamespaceSchemaLocation="http://sumo.dlr.de/xsd/routes_file.xsd">
   <vType id="veh1" laneChangeModel="LC2013" lcCooperative="5.0" lcKeepRight="3.0" lcSpeedGain="5.0" lcStrategic="10.0" length="4.00" maxSpeed="55.00" minGap="1.50" vClass="passenger"/>
   <vehicle arrivalPos="30" depart="0.00" id="12071" type="veh1">
      <route edges="KC_A1 KC_A2 YB_E1"/>
   </vehicle>
   <vehicle arrivalPos="30" depart="0.00" id="12072" type="veh1">
      <route edges="KC_A1 KC_A2 YB_E1"/>
   </vehicle>
   <vehicle arrivalPos="30" depart="2.00" id="44" type="veh1">
      <route edges="GH_A1 GH_A2 GH_C2 GH_F"/>
   </vehicle>
   <vehicle arrivalPos="30" depart="2.00" id="4446" type="veh1">
      <route edges="KL_E1 KL_E2 GH_C"/>
   </vehicle>
   <vehicle arrivalPos="30" depart="3.00" id="4525" type="veh1">
      <route edges="KL_G1 KL_G2 KL_G3 YB_A2"/>
   </vehicle>
   <vehicle arrivalPos="30" depart="3.00" id="8686" type="veh1">
      <route edges="YB_C YB_C2 YB_C1 YB_F"/>
   </vehicle>
   <vehicle arrivalPos="30" depart="4.00" id="49" type="veh1">
      <route edges="GH_C GH_C2 GH_F"/>
   </vehicle>
   <vehicle arrivalPos="30" depart="4.00" id="12040" type="veh1">
      <route edges="KC_A1 KC_A2 YB_E1"/>
   </vehicle>
   <vehicle arrivalPos="30" depart="5.00" id="93" type="veh1">
      <route edges="GH_C GH_C2 GH_H1 GH_H2"/>
   </vehicle>
   <vehicle arrivalPos="30" depart="5.00" id="8684" type="veh1">
      <route edges="YB_C YB_C2 YB_C1 YB_F"/>
   </vehicle>
   <vehicle arrivalPos="30" depart="6.00" id="8703" type="veh1">
      <route edges="YB_C YB_C2 YB_C1 YB_E2 YB_G1 YB_B"/>
   </vehicle>
   <vehicle arrivalPos="30" depart="8.00" id="14" type="veh1">
      <route edges="GH_A1 GH_B1 KL_G1"/>
   </vehicle>
   <vehicle arrivalPos="30" depart="9.00" id="102" type="veh1">
      <route edges="GH_E GH_G3 GH_B2 KL_G1"/>
   </vehicle>
   <vehicle arrivalPos="30" depart="10.00" id="40" type="veh1">
      <route edges="GH_A1 GH_A2 GH_C2 GH_F"/>
   </vehicle>
   <vehicle arrivalPos="30" depart="10.00" id="129" type="veh1">
      <route edges="GH_G GH_G2 GH_G3 GH_B2 KL_G1"/>
   </vehicle>
   <vehicle arrivalPos="30" depart="10.00" id="4491" type="veh1">
      <route edges="KL_E1 KL_E2 KL_E3 KL_G2 KL_B"/>
   </vehicle>
   <vehicle arrivalPos="30" depart="10.00" id="8709" type="veh1">
      <route edges="YB_E1 YB_E2 KL_E1"/>
   </vehicle>
   <vehicle arrivalPos="30" depart="10.00" id="12107" type="veh1">
      <route edges="KC_G KC_G1 KC_B"/>
   </vehicle>
   <vehicle arrivalPos="30" depart="11.00" id="4409" type="veh1">
      <route edges="KL_C1 KL_C2 KL_E2 GH_C"/>
   </vehicle>
   <vehicle arrivalPos="30" depart="11.00" id="4467" type="veh1">
      <route edges="KL_E1 KL_E2 GH_C"/>
   </vehicle>
   <vehicle arrivalPos="30" depart="11.00" id="4500" type="veh1">
      <route edges="KL_G1 KL_G2 KL_B"/>
   </vehicle>
   <vehicle arrivalPos="30" depart="11.00" id="4522" type="veh1">
      <route edges="KL_G1 KL_G2 KL_G3 YB_A2"/>
   </vehicle>
   <vehicle arrivalPos="30" depart="11.00" id="12073" type="veh1">
      <route edges="KC_A1 KC_A2 YB_E1"/>
   </vehicle>
   <vehicle arrivalPos="30" depart="12.00" id="12067" type="veh1">
      <route edges="KC_A1 KC_A2 YB_E1"/>
   </vehicle>
   <vehicle arrivalPos="30" depart="13.00" id="56" type="veh1">
      <route edges="GH_C GH_C2 GH_F"/>
   </vehicle>
   <vehicle arrivalPos="30" depart="14.00" id="4519" type="veh1">
      <route edges="KL_G1 KL_G2 KL_G3 YB_A2"/>
   </vehicle>
   <vehicle arrivalPos="30" depart="16.00" id="4406" type="veh1">
      <route edges="KL_C1 YB_A2"/>
   </vehicle>
   <vehicle arrivalPos="30" depart="16.00" id="4410" type="veh1">
      <route edges="KL_C1 KL_C2 KL_E2 GH_C"/>
   </vehicle>
   <vehicle arrivalPos="30" depart="18.00" id="4516" type="veh1">
      <route edges="KL_G1 KL_G2 KL_B"/>
   </vehicle>
   <vehicle arrivalPos="30" depart="19.00" id="61" type="veh1">
      <route edges="GH_C GH_C2 GH_F"/>
   </vehicle>
   <vehicle arrivalPos="30" depart="20.00" id="8683" type="veh1">
      <route edges="YB_C YB_C4 KC_E1"/>
   </vehicle>
   <vehicle arrivalPos="30" depart="23.00" id="84" type="veh1">
      <route edges="GH_C GH_C2 GH_H1 GH_H2"/>
   </vehicle>
   <vehicle arrivalPos="30" depart="23.00" id="12042" type="veh1">
      <route edges="KC_A1 KC_A2 YB_E1"/>
   </vehicle>
   <vehicle arrivalPos="30" depart="24.00" id="4483" type="veh1">
      <route edges="KL_E1 KL_E2 KL_E3 KL_G2 KL_B"/>
   </vehicle>
   <vehicle arrivalPos="30" depart="25.00" id="89" type="veh1">
      <route edges="GH_C GH_C2 GH_H1 GH_H2"/>
   </vehicle>
   <vehicle arrivalPos="30" depart="26.00" id="4501" type="veh1">
      <route edges="KL_G1 KL_G2 KL_B"/>
   </vehicle>
   <vehicle arrivalPos="30" depart="26.00" id="12041" type="veh1">
      <route edges="KC_A1 KC_A2 YB_E1"/>
   </vehicle>
   <vehicle arrivalPos="30" depart="26.00" id="12060" type="veh1">
      <route edges="KC_A1 KC_A2 YB_E1"/>
   </vehicle>
   <vehicle arrivalPos="30" depart="27.00" id="99" type="veh1">
      <route edges="GH_E GH_H1 GH_H2"/>
   </vehicle>
   <vehicle arrivalPos="30" depart="27.00" id="105" type="veh1">
      <route edges="GH_G GH_G1 GH_H2"/>
   </vehicle>
   <vehicle arrivalPos="30" depart="27.00" id="4430" type="veh1">
      <route edges="KL_C1 KL_C2 KL_E2 GH_C"/>
   </vehicle>
   <vehicle arrivalPos="30" depart="27.00" id="4460" type="veh1">
      <route edges="KL_E1 KL_E2 GH_C"/>
   </vehicle>
   <vehicle arrivalPos="30" depart="27.00" id="8675" type="veh1">
      <route edges="YB_A2 YB_A1 YB_C1 YB_F"/>
   </vehicle>
   <vehicle arrivalPos="30" depart="27.00" id="12049" type="veh1">
      <route edges="KC_A1 KC_A2 YB_E1"/>
   </vehicle>
   <vehicle arrivalPos="30" depart="30.00" id="4498" type="veh1">
      <route edges="KL_G1 KL_G2 KL_B"/>
   </vehicle>
   <vehicle arrivalPos="30" depart="30.00" id="4513" type="veh1">
      <route edges="KL_G1 KL_G2 KL_B"/>
   </vehicle>
   <vehicle arrivalPos="30" depart="31.00" id="31" type="veh1">
      <route edges="GH_A1 GH_A2 GH_C2 GH_F"/>
   </vehicle>
   <vehicle arrivalPos="30" depart="32.00" id="8653" type="veh1">
      <route edges="YB_A2 YB_B"/>
   </vehicle>
   <vehicle arrivalPos="30" depart="33.00" id="8712" type="veh1">
      <route edges="YB_E1 YB_E2 KL_E1"/>
   </vehicle>
   <vehicle arrivalPos="30" depart="33.00" id="12047" type="veh1">
      <route edges="KC_A1 KC_A2 YB_E1"/>
   </vehicle>
   <vehicle arrivalPos="30" depart="34.00" id="12082" type="veh1">
      <route edges="KC_C KC_C1 KC_F"/>
   </vehicle>
   <vehicle arrivalPos="30" depart="35.00" id="4523" type="veh1">
      <route edges="KL_G1 KL_G2 KL_G3 YB_A2"/>
   </vehicle>
   <vehicle arrivalPos="30" depart="36.00" id="53" type="veh1">
      <route edges="GH_C GH_C2 GH_F"/>
   </vehicle>
   <vehicle arrivalPos="30" depart="36.00" id="4529" type="veh1">
      <route edges="KL_G1 KL_G2 KL_G3 YB_A2"/>
   </vehicle>
   <vehicle arrivalPos="30" depart="37.00" id="4533" type="veh1">
      <route edges="KL_G1 KL_G2 KL_G3 YB_A2"/>
   </vehicle>
   <vehicle arrivalPos="30" depart="39.00" id="67" type="veh1">
      <route edges="GH_C GH_C2 GH_F"/>
   </vehicle>
   <vehicle arrivalPos="30" depart="40.00" id="8" type="veh1">
      <route edges="GH_A1 GH_B1 KL_G1"/>
   </vehicle>
   <vehicle arrivalPos="30" depart="40.00" id="34" type="veh1">
      <route edges="GH_A1 GH_A2 GH_C2 GH_F"/>
   </vehicle>
   <vehicle arrivalPos="30" depart="40.00" id="48" type="veh1">
      <route edges="GH_C GH_C2 GH_F"/>
   </vehicle>
   <vehicle arrivalPos="30" depart="41.00" id="47" type="veh1">
      <route edges="GH_C GH_C2 GH_F"/>
   </vehicle>
   <vehicle arrivalPos="30" depart="41.00" id="52" type="veh1">
      <route edges="GH_C GH_C2 GH_F"/>
   </vehicle>
   <vehicle arrivalPos="30" depart="41.00" id="8696" type="veh1">
      <route edges="YB_C YB_C2 YB_C1 YB_E2 KL_E1"/>
   </vehicle>
   <vehicle arrivalPos="30" depart="42.00" id="4427" type="veh1">
      <route edges="KL_C1 KL_C2 KL_E2 GH_C"/>
   </vehicle>
   <vehicle arrivalPos="30" depart="43.00" id="4451" type="veh1">
      <route edges="KL_E1 KL_E2 GH_C"/>
   </vehicle>
   <vehicle arrivalPos="30" depart="44.00" id="43" type="veh1">
      <route edges="GH_A1 GH_A2 GH_C2 GH_F"/>
   </vehicle>
   <vehicle arrivalPos="30" depart="44.00" id="4527" type="veh1">
      <route edges="KL_G1 KL_G2 KL_G3 YB_A2"/>
   </vehicle>
   <vehicle arrivalPos="30" depart="44.00" id="8672" type="veh1">
      <route edges="YB_A2 YB_A1 YB_C3 KC_E1"/>
   </vehicle>
   <vehicle arrivalPos="30" depart="45.00" id="15" type="veh1">
      <route edges="GH_A1 GH_B1 KL_G1"/>
   </vehicle>
   <vehicle arrivalPos="30" depart="45.00" id="4444" type="veh1">
      <route edges="KL_E1 KL_E2 GH_C"/>
   </vehicle>
   <vehicle arrivalPos="30" depart="45.00" id="8728" type="veh1">
      <route edges="YB_E1 YB_E2 KL_E1"/>
   </vehicle>
   <vehicle arrivalPos="30" depart="48.00" id="4412" type="veh1">
      <route edges="KL_C1 KL_C2 KL_E2 GH_C"/>
   </vehicle>
   <vehicle arrivalPos="30" depart="48.00" id="8711" type="veh1">
      <route edges="YB_E1 YB_E2 KL_E1"/>
   </vehicle>
   <vehicle arrivalPos="30" depart="49.00" id="82" type="veh1">
      <route edges="GH_C GH_C2 GH_H1 GH_H2"/>
   </vehicle>
   <vehicle arrivalPos="30" depart="49.00" id="4443" type="veh1">
      <route edges="KL_E1 KL_E2 GH_C"/>
   </vehicle>
   <vehicle arrivalPos="30" depart="50.00" id="60" type="veh1">
      <route edges="GH_C GH_C2 GH_F"/>
   </vehicle>
   <vehicle arrivalPos="30" depart="50.00" id="4511" type="veh1">
      <route edges="KL_G1 KL_G2 KL_B"/>
   </vehicle>
   <vehicle arrivalPos="30" depart="50.00" id="8674" type="veh1">
      <route edges="YB_A2 YB_A1 YB_C3 KC_E1"/>
   </vehicle>
   <vehicle arrivalPos="30" depart="50.00" id="12045" type="veh1">
      <route edges="KC_A1 KC_A2 YB_E1"/>
   </vehicle>
   <vehicle arrivalPos="30" depart="53.00" id="8716" type="veh1">
      <route edges="YB_E1 YB_E2 KL_E1"/>
   </vehicle>
   <vehicle arrivalPos="30" depart="53.00" id="12086" type="veh1">
      <route edges="KC_E1 KC_F"/>
   </vehicle>
   <vehicle arrivalPos="30" depart="54.00" id="23" type="veh1">
      <route edges="GH_A1 GH_B1 KL_G1"/>
   </vehicle>
   <vehicle arrivalPos="30" depart="54.00" id="12032" type="veh1">
      <route edges="KC_A1 KC_B"/>
   </vehicle>
   <vehicle arrivalPos="30" depart="55.00" id="4398" type="veh1">
      <route edges="KL_C1 YB_A2"/>
   </vehicle>
   <vehicle arrivalPos="30" depart="56.00" id="4438" type="veh1">
      <route edges="KL_E1 KL_E2 GH_C"/>
   </vehicle>
   <vehicle arrivalPos="30" depart="56.00" id="4514" type="veh1">
      <route edges="KL_G1 KL_G2 KL_B"/>
   </vehicle>
   <vehicle arrivalPos="30" depart="56.00" id="12088" type="veh1">
      <route edges="KC_E1 KC_E2 KC_H"/>
   </vehicle>
   <vehicle arrivalPos="30" depart="57.00" id="127" type="veh1">
      <route edges="GH_G GH_G2 GH_G3 GH_B2 KL_G1"/>
   </vehicle>
   <vehicle arrivalPos="30" depart="58.00" id="98" type="veh1">
      <route edges="GH_E GH_H1 GH_H2"/>
   </vehicle>
   <vehicle arrivalPos="30" depart="58.00" id="123" type="veh1">
      <route edges="GH_G GH_G2 GH_G3 GH_B2 KL_G1"/>
   </vehicle>
   <vehicle arrivalPos="30" depart="59.00" id="19" type="veh1">
      <route edges="GH_A1 GH_B1 KL_G1"/>
   </vehicle>
   <vehicle arrivalPos="30" depart="59.00" id="4472" type="veh1">
      <route edges="KL_E1 KL_E2 GH_C"/>
   </vehicle>
   <vehicle arrivalPos="30" depart="60.00" id="25" type="veh1">
      <route edges="GH_A1 GH_B1 KL_G1"/>
   </vehicle>
   <vehicle arrivalPos="30" depart="61.00" id="4478" type="veh1">
      <route edges="KL_E1 KL_E2 KL_E3 KL_G2 KL_B"/>
   </vehicle>
   <vehicle arrivalPos="30" depart="62.00" id="4524" type="veh1">
      <route edges="KL_G1 KL_G2 KL_G3 YB_A2"/>
   </vehicle>
   <vehicle arrivalPos="30" depart="62.00" id="4531" type="veh1">
      <route edges="KL_G1 KL_G2 KL_G3 YB_A2"/>
   </vehicle>
   <vehicle arrivalPos="30" depart="62.00" id="8661" type="veh1">
      <route edges="YB_A2 YB_A1 YB_C3 KC_E1"/>
   </vehicle>
   <vehicle arrivalPos="30" depart="63.00" id="97" type="veh1">
      <route edges="GH_E GH_H1 GH_H2"/>
   </vehicle>
   <vehicle arrivalPos="30" depart="64.00" id="6" type="veh1">
      <route edges="GH_A1 GH_B1 KL_G1"/>
   </vehicle>
   <vehicle arrivalPos="30" depart="64.00" id="16" type="veh1">
      <route edges="GH_A1 GH_B1 KL_G1"/>
   </vehicle>
   <vehicle arrivalPos="30" depart="66.00" id="8730" type="veh1">
      <route edges="YB_E1 YB_E2 YB_G1 YB_B"/>
   </vehicle>
   <vehicle arrivalPos="30" depart="68.00" id="12" type="veh1">
      <route edges="GH_A1 GH_B1 KL_G1"/>
   </vehicle>
   <vehicle arrivalPos="30" depart="68.00" id="12085" type="veh1">
      <route edges="KC_E1 KC_F"/>
   </vehicle>
   <vehicle arrivalPos="30" depart="68.00" id="12098" type="veh1">
      <route edges="KC_E1 KC_E2 KC_H"/>
   </vehicle>
   <vehicle arrivalPos="30" depart="68.00" id="12105" type="veh1">
      <route edges="KC_G KC_G1 KC_B"/>
   </vehicle>
   <vehicle arrivalPos="30" depart="69.00" id="12055" type="veh1">
      <route edges="KC_A1 KC_A2 YB_E1"/>
   </vehicle>
   <vehicle arrivalPos="30" depart="70.00" id="12083" type="veh1">
      <route edges="KC_C KC_C1 KC_F"/>
   </vehicle>
   <vehicle arrivalPos="30" depart="72.00" id="12037" type="veh1">
      <route edges="KC_A1 KC_B"/>
   </vehicle>
   <vehicle arrivalPos="30" depart="73.00" id="64" type="veh1">
      <route edges="GH_C GH_C2 GH_F"/>
   </vehicle>
   <vehicle arrivalPos="30" depart="73.00" id="86" type="veh1">
      <route edges="GH_C GH_C2 GH_H1 GH_H2"/>
   </vehicle>
   <vehicle arrivalPos="30" depart="76.00" id="12094" type="veh1">
      <route edges="KC_E1 KC_E2 KC_H"/>
   </vehicle>
   <vehicle arrivalPos="30" depart="77.00" id="46" type="veh1">
      <route edges="GH_C GH_C2 GH_F"/>
   </vehicle>
   <vehicle arrivalPos="30" depart="80.00" id="4485" type="veh1">
      <route edges="KL_E1 KL_E2 KL_E3 KL_G2 KL_B"/>
   </vehicle>
   <vehicle arrivalPos="30" depart="80.00" id="12038" type="veh1">
      <route edges="KC_A1 KC_A2 YB_E1"/>
   </vehicle>
   <vehicle arrivalPos="30" depart="81.00" id="12052" type="veh1">
      <route edges="KC_A1 KC_A2 YB_E1"/>
   </vehicle>
   <vehicle arrivalPos="30" depart="83.00" id="65" type="veh1">
      <route edges="GH_C GH_C2 GH_F"/>
   </vehicle>
   <vehicle arrivalPos="30" depart="84.00" id="8690" type="veh1">
      <route edges="YB_C YB_C2 YB_C1 YB_E2 KL_E1"/>
   </vehicle>
   <vehicle arrivalPos="30" depart="87.00" id="104" type="veh1">
      <route edges="GH_G GH_G1 GH_H2"/>
   </vehicle>
   <vehicle arrivalPos="30" depart="92.00" id="8710" type="veh1">
      <route edges="YB_E1 YB_E2 KL_E1"/>
   </vehicle>
   <vehicle arrivalPos="30" depart="93.00" id="5" type="veh1">
      <route edges="GH_A1 GH_B1 KL_G1"/>
   </vehicle>
   <vehicle arrivalPos="30" depart="94.00" id="8659" type="veh1">
      <route edges="YB_A2 YB_A1 YB_C3 KC_E1"/>
   </vehicle>
   <vehicle arrivalPos="30" depart="96.00" id="108" type="veh1">
      <route edges="GH_G GH_G2 GH_G3 GH_B2 KL_G1"/>
   </vehicle>
   <vehicle arrivalPos="30" depart="97.00" id="4477" type="veh1">
      <route edges="KL_E1 KL_E2 KL_E3 KL_G2 KL_B"/>
   </vehicle>
   <vehicle arrivalPos="30" depart="99.00" id="4492" type="veh1">
      <route edges="KL_G1 KL_G2 KL_B"/>
   </vehicle>
   <vehicle arrivalPos="30" depart="100.00" id="94" type="veh1">
      <route edges="GH_C GH_C2 GH_H1 GH_H2"/>
   </vehicle>
   <vehicle arrivalPos="30" depart="100.00" id="4459" type="veh1">
      <route edges="KL_E1 KL_E2 GH_C"/>
   </vehicle>
   <vehicle arrivalPos="30" depart="102.00" id="4518" type="veh1">
      <route edges="KL_G1 KL_G2 KL_B"/>
   </vehicle>
   <vehicle arrivalPos="30" depart="103.00" id="4" type="veh1">
      <route edges="GH_A1 GH_B1 KL_G1"/>
   </vehicle>
   <vehicle arrivalPos="30" depart="103.00" id="8729" type="veh1">
      <route edges="YB_E1 YB_E2 YB_G1 YB_B"/>
   </vehicle>
   <vehicle arrivalPos="30" depart="104.00" id="4507" type="veh1">
      <route edges="KL_G1 KL_G2 KL_B"/>
   </vehicle>
   <vehicle arrivalPos="30" depart="105.00" id="24" type="veh1">
      <route edges="GH_A1 GH_B1 KL_G1"/>
   </vehicle>
   <vehicle arrivalPos="30" depart="105.00" id="75" type="veh1">
      <route edges="GH_C GH_C2 GH_H1 GH_H2"/>
   </vehicle>
   <vehicle arrivalPos="30" depart="106.00" id="4517" type="veh1">
      <route edges="KL_G1 KL_G2 KL_B"/>
   </vehicle>
   <vehicle arrivalPos="30" depart="108.00" id="22" type="veh1">
      <route edges="GH_A1 GH_B1 KL_G1"/>
   </vehicle>
   <vehicle arrivalPos="30" depart="109.00" id="8689" type="veh1">
      <route edges="YB_C YB_C2 YB_C1 YB_F"/>
   </vehicle>
   <vehicle arrivalPos="30" depart="110.00" id="12036" type="veh1">
      <route edges="KC_A1 KC_B"/>
   </vehicle>
   <vehicle arrivalPos="30" depart="111.00" id="87" type="veh1">
      <route edges="GH_C GH_C2 GH_H1 GH_H2"/>
   </vehicle>
   <vehicle arrivalPos="30" depart="111.00" id="8704" type="veh1">
      <route edges="YB_E1 YB_E2 KL_E1"/>
   </vehicle>
   <vehicle arrivalPos="30" depart="112.00" id="9" type="veh1">
      <route edges="GH_A1 GH_B1 KL_G1"/>
   </vehicle>
   <vehicle arrivalPos="30" depart="112.00" id="120" type="veh1">
      <route edges="GH_G GH_G2 GH_G3 GH_B2 KL_G1"/>
   </vehicle>
   <vehicle arrivalPos="30" depart="112.00" id="4405" type="veh1">
      <route edges="KL_C1 YB_A2"/>
   </vehicle>
   <vehicle arrivalPos="30" depart="113.00" id="27" type="veh1">
      <route edges="GH_A1 GH_B1 KL_G1"/>
   </vehicle>
   <vehicle arrivalPos="30" depart="115.00" id="4505" type="veh1">
      <route edges="KL_G1 KL_G2 KL_B"/>
   </vehicle>
   <vehicle arrivalPos="30" depart="115.00" id="8655" type="veh1">
      <route edges="YB_A2 YB_A1 YB_C3 KC_E1"/>
   </vehicle>
   <vehicle arrivalPos="30" depart="116.00" id="8670" type="veh1">
      <route edges="YB_A2 YB_A1 YB_C3 KC_E1"/>
   </vehicle>
   <vehicle arrivalPos="30" depart="116.00" id="12090" type="veh1">
      <route edges="KC_E1 KC_E2 KC_H"/>
   </vehicle>
   <vehicle arrivalPos="30" depart="117.00" id="12050" type="veh1">
      <route edges="KC_A1 KC_A2 YB_E1"/>
   </vehicle>
   <vehicle arrivalPos="30" depart="118.00" id="8676" type="veh1">
      <route edges="YB_A2 YB_A1 YB_C1 YB_F"/>
   </vehicle>
   <vehicle arrivalPos="30" depart="118.00" id="8680" type="veh1">
      <route edges="YB_A2 YB_A1 YB_C1 YB_F"/>
   </vehicle>
   <vehicle arrivalPos="30" depart="120.00" id="4499" type="veh1">
      <route edges="KL_G1 KL_G2 KL_B"/>
   </vehicle>
   <vehicle arrivalPos="30" depart="121.00" id="38" type="veh1">
      <route edges="GH_A1 GH_A2 GH_C2 GH_F"/>
   </vehicle>
   <vehicle arrivalPos="30" depart="122.00" id="90" type="veh1">
      <route edges="GH_C GH_C2 GH_H1 GH_H2"/>
   </vehicle>
   <vehicle arrivalPos="30" depart="122.00" id="4399" type="veh1">
      <route edges="KL_C1 YB_A2"/>
   </vehicle>
   <vehicle arrivalPos="30" depart="122.00" id="12031" type="veh1">
      <route edges="KC_A1 KC_B"/>
   </vehicle>
   <vehicle arrivalPos="30" depart="122.00" id="12061" type="veh1">
      <route edges="KC_A1 KC_A2 YB_E1"/>
   </vehicle>
   <vehicle arrivalPos="30" depart="124.00" id="100" type="veh1">
      <route edges="GH_E GH_G3 GH_B2 KL_G1"/>
   </vehicle>
   <vehicle arrivalPos="30" depart="125.00" id="4402" type="veh1">
      <route edges="KL_C1 YB_A2"/>
   </vehicle>
   <vehicle arrivalPos="30" depart="126.00" id="3" type="veh1">
      <route edges="GH_A1 GH_B1 KL_G1"/>
   </vehicle>
   <vehicle arrivalPos="30" depart="126.00" id="4429" type="veh1">
      <route edges="KL_C1 KL_C2 KL_E2 GH_C"/>
   </vehicle>
   <vehicle arrivalPos="30" depart="126.00" id="8682" type="veh1">
      <route edges="YB_C YB_C4 KC_E1"/>
   </vehicle>
   <vehicle arrivalPos="30" depart="127.00" id="4416" type="veh1">
      <route edges="KL_C1 KL_C2 KL_E2 GH_C"/>
   </vehicle>
   <vehicle arrivalPos="30" depart="127.00" id="12109" type="veh1">
      <route edges="KC_G KC_G1 KC_B"/>
   </vehicle>
   <vehicle arrivalPos="30" depart="129.00" id="8698" type="veh1">
      <route edges="YB_C YB_C2 YB_C1 YB_E2 KL_E1"/>
   </vehicle>
   <vehicle arrivalPos="30" depart="130.00" id="125" type="veh1">
      <route edges="GH_G GH_G2 GH_G3 GH_B2 KL_G1"/>
   </vehicle>
   <vehicle arrivalPos="30" depart="131.00" id="4481" type="veh1">
      <route edges="KL_E1 KL_E2 KL_E3 KL_G2 KL_B"/>
   </vehicle>
   <vehicle arrivalPos="30" depart="131.00" id="8697" type="veh1">
      <route edges="YB_C YB_C2 YB_C1 YB_E2 KL_E1"/>
   </vehicle>
   <vehicle arrivalPos="30" depart="131.00" id="8720" type="veh1">
      <route edges="YB_E1 YB_E2 KL_E1"/>
   </vehicle>
   <vehicle arrivalPos="30" depart="131.00" id="8736" type="veh1">
      <route edges="YB_G YB_G1 YB_B"/>
   </vehicle>
   <vehicle arrivalPos="30" depart="132.00" id="8701" type="veh1">
      <route edges="YB_C YB_C2 YB_C1 YB_E2 YB_G1 YB_B"/>
   </vehicle>
   <vehicle arrivalPos="30" depart="132.00" id="8724" type="veh1">
      <route edges="YB_E1 YB_E2 KL_E1"/>
   </vehicle>
   <vehicle arrivalPos="30" depart="132.00" id="12079" type="veh1">
      <route edges="KC_A1 KC_A2 KC_C1 KC_F"/>
   </vehicle>
   <vehicle arrivalPos="30" depart="133.00" id="12099" type="veh1">
      <route edges="KC_E1 KC_E2 KC_H"/>
   </vehicle>
   <vehicle arrivalPos="30" depart="134.00" id="8693" type="veh1">
      <route edges="YB_C YB_C2 YB_C1 YB_E2 KL_E1"/>
   </vehicle>
   <vehicle arrivalPos="30" depart="134.00" id="8722" type="veh1">
      <route edges="YB_E1 YB_E2 KL_E1"/>
   </vehicle>
   <vehicle arrivalPos="30" depart="134.00" id="12048" type="veh1">
      <route edges="KC_A1 KC_A2 YB_E1"/>
   </vehicle>
   <vehicle arrivalPos="30" depart="135.00" id="4425" type="veh1">
      <route edges="KL_C1 KL_C2 KL_E2 GH_C"/>
   </vehicle>
   <vehicle arrivalPos="30" depart="135.00" id="8732" type="veh1">
      <route edges="YB_G KL_E1"/>
   </vehicle>
   <vehicle arrivalPos="30" depart="135.00" id="12056" type="veh1">
      <route edges="KC_A1 KC_A2 YB_E1"/>
   </vehicle>
   <vehicle arrivalPos="30" depart="136.00" id="4506" type="veh1">
      <route edges="KL_G1 KL_G2 KL_B"/>
   </vehicle>
   <vehicle arrivalPos="30" depart="139.00" id="12066" type="veh1">
      <route edges="KC_A1 KC_A2 YB_E1"/>
   </vehicle>
   <vehicle arrivalPos="30" depart="140.00" id="8706" type="veh1">
      <route edges="YB_E1 YB_E2 KL_E1"/>
   </vehicle>
   <vehicle arrivalPos="30" depart="141.00" id="8715" type="veh1">
      <route edges="YB_E1 YB_E2 KL_E1"/>
   </vehicle>
   <vehicle arrivalPos="30" depart="142.00" id="4473" type="veh1">
      <route edges="KL_E1 KL_E2 GH_C"/>
   </vehicle>
   <vehicle arrivalPos="30" depart="143.00" id="12062" type="veh1">
      <route edges="KC_A1 KC_A2 YB_E1"/>
   </vehicle>
   <vehicle arrivalPos="30" depart="144.00" id="42" type="veh1">
      <route edges="GH_A1 GH_A2 GH_C2 GH_F"/>
   </vehicle>
   <vehicle arrivalPos="30" depart="144.00" id="4445" type="veh1">
      <route edges="KL_E1 KL_E2 GH_C"/>
   </vehicle>
   <vehicle arrivalPos="30" depart="145.00" id="7" type="veh1">
      <route edges="GH_A1 GH_B1 KL_G1"/>
   </vehicle>
   <vehicle arrivalPos="30" depart="145.00" id="8673" type="veh1">
      <route edges="YB_A2 YB_A1 YB_C3 KC_E1"/>
   </vehicle>
   <vehicle arrivalPos="30" depart="146.00" id="35" type="veh1">
      <route edges="GH_A1 GH_A2 GH_C2 GH_F"/>
   </vehicle>
   <vehicle arrivalPos="30" depart="147.00" id="4449" type="veh1">
      <route edges="KL_E1 KL_E2 GH_C"/>
   </vehicle>
   <vehicle arrivalPos="30" depart="147.00" id="8714" type="veh1">
      <route edges="YB_E1 YB_E2 KL_E1"/>
   </vehicle>
   <vehicle arrivalPos="30" depart="148.00" id="114" type="veh1">
      <route edges="GH_G GH_G2 GH_G3 GH_B2 KL_G1"/>
   </vehicle>
   <vehicle arrivalPos="30" depart="148.00" id="8678" type="veh1">
      <route edges="YB_A2 YB_A1 YB_C1 YB_F"/>
   </vehicle>
   <vehicle arrivalPos="30" depart="149.00" id="4456" type="veh1">
      <route edges="KL_E1 KL_E2 GH_C"/>
   </vehicle>
   <vehicle arrivalPos="30" depart="149.00" id="12084" type="veh1">
      <route edges="KC_E1 KC_F"/>
   </vehicle>
   <vehicle arrivalPos="30" depart="150.00" id="45" type="veh1">
      <route edges="GH_A1 GH_A2 GH_C2 GH_H1 GH_H2"/>
   </vehicle>
   <vehicle arrivalPos="30" depart="152.00" id="12074" type="veh1">
      <route edges="KC_A1 KC_A2 YB_E1"/>
   </vehicle>
   <vehicle arrivalPos="30" depart="154.00" id="8725" type="veh1">
      <route edges="YB_E1 YB_E2 KL_E1"/>
   </vehicle>
   <vehicle arrivalPos="30" depart="155.00" id="4441" type="veh1">
      <route edges="KL_E1 KL_E2 GH_C"/>
   </vehicle>
   <vehicle arrivalPos="30" depart="155.00" id="4474" type="veh1">
      <route edges="KL_E1 KL_E2 GH_C"/>
   </vehicle>
   <vehicle arrivalPos="30" depart="156.00" id="111" type="veh1">
      <route edges="GH_G GH_G2 GH_G3 GH_B2 KL_G1"/>
   </vehicle>
   <vehicle arrivalPos="30" depart="156.00" id="124" type="veh1">
      <route edges="GH_G GH_G2 GH_G3 GH_B2 KL_G1"/>
   </vehicle>
   <vehicle arrivalPos="30" depart="157.00" id="8737" type="veh1">
      <route edges="YB_G YB_G1 YB_A1 YB_C3 KC_E1"/>
   </vehicle>
   <vehicle arrivalPos="30" depart="159.00" id="77" type="veh1">
      <route edges="GH_C GH_C2 GH_H1 GH_H2"/>
   </vehicle>
   <vehicle arrivalPos="30" depart="159.00" id="4437" type="veh1">
      <route edges="KL_C1 KL_C2 KL_E2 KL_E3 KL_G2 KL_B"/>
   </vehicle>
   <vehicle arrivalPos="30" depart="160.00" id="8700" type="veh1">
      <route edges="YB_C YB_C2 YB_C1 YB_E2 YB_G1 YB_B"/>
   </vehicle>
   <vehicle arrivalPos="30" depart="161.00" id="4476" type="veh1">
      <route edges="KL_E1 KL_E2 GH_C"/>
   </vehicle>
   <vehicle arrivalPos="30" depart="162.00" id="59" type="veh1">
      <route edges="GH_C GH_C2 GH_F"/>
   </vehicle>
   <vehicle arrivalPos="30" depart="164.00" id="12033" type="veh1">
      <route edges="KC_A1 KC_B"/>
   </vehicle>
   <vehicle arrivalPos="30" depart="165.00" id="83" type="veh1">
      <route edges="GH_C GH_C2 GH_H1 GH_H2"/>
   </vehicle>
   <vehicle arrivalPos="30" depart="165.00" id="8688" type="veh1">
      <route edges="YB_C YB_C2 YB_C1 YB_F"/>
   </vehicle>
   <vehicle arrivalPos="30" depart="166.00" id="54" type="veh1">
      <route edges="GH_C GH_C2 GH_F"/>
   </vehicle>
   <vehicle arrivalPos="30" depart="166.00" id="4484" type="veh1">
      <route edges="KL_E1 KL_E2 KL_E3 KL_G2 KL_B"/>
   </vehicle>
   <vehicle arrivalPos="30" depart="166.00" id="4512" type="veh1">
      <route edges="KL_G1 KL_G2 KL_B"/>
   </vehicle>
   <vehicle arrivalPos="30" depart="167.00" id="4422" type="veh1">
      <route edges="KL_C1 KL_C2 KL_E2 GH_C"/>
   </vehicle>
   <vehicle arrivalPos="30" depart="168.00" id="8687" type="veh1">
      <route edges="YB_C YB_C2 YB_C1 YB_F"/>
   </vehicle>
   <vehicle arrivalPos="30" depart="170.00" id="21" type="veh1">
      <route edges="GH_A1 GH_B1 KL_G1"/>
   </vehicle>
   <vehicle arrivalPos="30" depart="170.00" id="4432" type="veh1">
      <route edges="KL_C1 KL_C2 KL_E2 GH_C"/>
   </vehicle>
   <vehicle arrivalPos="30" depart="170.00" id="8721" type="veh1">
      <route edges="YB_E1 YB_E2 KL_E1"/>
   </vehicle>
   <vehicle arrivalPos="30" depart="171.00" id="8679" type="veh1">
      <route edges="YB_A2 YB_A1 YB_C1 YB_F"/>
   </vehicle>
   <vehicle arrivalPos="30" depart="173.00" id="12059" type="veh1">
      <route edges="KC_A1 KC_A2 YB_E1"/>
   </vehicle>
   <vehicle arrivalPos="30" depart="175.00" id="8666" type="veh1">
      <route edges="YB_A2 YB_A1 YB_C3 KC_E1"/>
   </vehicle>
   <vehicle arrivalPos="30" depart="176.00" id="8668" type="veh1">
      <route edges="YB_A2 YB_A1 YB_C3 KC_E1"/>
   </vehicle>
   <vehicle arrivalPos="30" depart="178.00" id="4469" type="veh1">
      <route edges="KL_E1 KL_E2 GH_C"/>
   </vehicle>
   <vehicle arrivalPos="30" depart="179.00" id="8671" type="veh1">
      <route edges="YB_A2 YB_A1 YB_C3 KC_E1"/>
   </vehicle>
   <vehicle arrivalPos="30" depart="179.00" id="8734" type="veh1">
      <route edges="YB_G KL_E1"/>
   </vehicle>
   <vehicle arrivalPos="30" depart="181.00" id="8667" type="veh1">
      <route edges="YB_A2 YB_A1 YB_C3 KC_E1"/>
   </vehicle>
   <vehicle arrivalPos="30" depart="182.00" id="4497" type="veh1">
      <route edges="KL_G1 KL_G2 KL_B"/>
   </vehicle>
   <vehicle arrivalPos="30" depart="184.00" id="4397" type="veh1">
      <route edges="KL_C1 YB_A2"/>
   </vehicle>
   <vehicle arrivalPos="30" depart="185.00" id="72" type="veh1">
      <route edges="GH_C GH_C2 GH_F"/>
   </vehicle>
   <vehicle arrivalPos="30" depart="185.00" id="4404" type="veh1">
      <route edges="KL_C1 YB_A2"/>
   </vehicle>
   <vehicle arrivalPos="30" depart="185.00" id="8677" type="veh1">
      <route edges="YB_A2 YB_A1 YB_C1 YB_F"/>
   </vehicle>
   <vehicle arrivalPos="30" depart="185.00" id="12064" type="veh1">
      <route edges="KC_A1 KC_A2 YB_E1"/>
   </vehicle>
   <vehicle arrivalPos="30" depart="189.00" id="20" type="veh1">
      <route edges="GH_A1 GH_B1 KL_G1"/>
   </vehicle>
   <vehicle arrivalPos="30" depart="189.00" id="8695" type="veh1">
      <route edges="YB_C YB_C2 YB_C1 YB_E2 KL_E1"/>
   </vehicle>
   <vehicle arrivalPos="30" depart="190.00" id="50" type="veh1">
      <route edges="GH_C GH_C2 GH_F"/>
   </vehicle>
   <vehicle arrivalPos="30" depart="192.00" id="8658" type="veh1">
      <route edges="YB_A2 YB_A1 YB_C3 KC_E1"/>
   </vehicle>
   <vehicle arrivalPos="30" depart="194.00" id="4415" type="veh1">
      <route edges="KL_C1 KL_C2 KL_E2 GH_C"/>
   </vehicle>
   <vehicle arrivalPos="30" depart="194.00" id="4493" type="veh1">
      <route edges="KL_G1 KL_G2 KL_B"/>
   </vehicle>
   <vehicle arrivalPos="30" depart="195.00" id="8713" type="veh1">
      <route edges="YB_E1 YB_E2 KL_E1"/>
   </vehicle>
   <vehicle arrivalPos="30" depart="196.00" id="4428" type="veh1">
      <route edges="KL_C1 KL_C2 KL_E2 GH_C"/>
   </vehicle>
   <vehicle arrivalPos="30" depart="197.00" id="28" type="veh1">
      <route edges="GH_A1 GH_B1 KL_G1"/>
   </vehicle>