<?xml version="1.0" encoding="UTF-8"?>

<!-- generated on 09/28/20 08:54:14 by Eclipse SUMO netedit Version 1.3.1
<configuration xmlns:xsi="http://www.w3.org/2001/XMLSchema-instance" xsi:noNamespaceSchemaLocation="http://sumo.dlr.de/xsd/netconvertConfiguration.xsd">

    <output>
        <output-file value="C:\Users\skkilic\Documents\KU\SmartJunction\Data\sim\data\gunes_kcetas\one.net.xml"/>
    </output>

    <processing>
        <offset.disable-normalization value="true"/>
    </processing>

    <junctions>
        <no-turnarounds value="true"/>
    </junctions>

</configuration>
-->

<net version="1.3" junctionCornerDetail="5" limitTurnSpeed="5.50" xmlns:xsi="http://www.w3.org/2001/XMLSchema-instance" xsi:noNamespaceSchemaLocation="http://sumo.dlr.de/xsd/net_file.xsd">

    <location netOffset="0.00,0.00" convBoundary="-195.19,-179.48,267.08,278.90" origBoundary="10000000000.00,10000000000.00,-10000000000.00,-10000000000.00" projParameter="!"/>

    <edge id=":gneJ0_0" function="internal">
        <lane id=":gneJ0_0_0" index="0" speed="6.52" length="9.06" shape="55.95,57.00 53.50,57.35 51.75,58.41 50.70,60.17 50.34,62.63"/>
    </edge>
    <edge id=":gneJ0_1" function="internal">
        <lane id=":gneJ0_1_0" index="0" speed="13.89" length="20.81" shape="55.95,57.00 35.15,57.02"/>
        <lane id=":gneJ0_1_1" index="1" speed="13.89" length="20.81" shape="55.96,53.80 35.14,53.82"/>
    </edge>
    <edge id=":gneJ0_3" function="internal">
        <lane id=":gneJ0_3_0" index="0" speed="9.27" length="19.35" shape="55.96,53.80 50.71,53.05 46.96,50.79 44.71,47.04 43.95,41.80"/>
    </edge>
    <edge id=":gneJ0_4" function="internal">
        <lane id=":gneJ0_4_0" index="0" speed="6.52" length="9.06" shape="50.35,41.79 50.70,44.24 51.76,46.00 53.51,47.05 55.97,47.40"/>
    </edge>
    <edge id=":gneJ0_5" function="internal">
        <lane id=":gneJ0_5_0" index="0" speed="13.89" length="20.84" shape="50.35,41.79 50.34,62.63"/>
        <lane id=":gneJ0_5_1" index="1" speed="13.89" length="20.84" shape="47.15,41.79 47.14,62.63"/>
    </edge>
    <edge id=":gneJ0_7" function="internal">
        <lane id=":gneJ0_7_0" index="0" speed="9.27" length="19.38" shape="47.15,41.79 46.41,47.04 44.16,50.79 40.40,53.05 35.14,53.82"/>
    </edge>
    <edge id=":gneJ0_8" function="internal">
        <lane id=":gneJ0_8_0" index="0" speed="6.52" length="9.06" shape="35.12,47.42 37.59,47.06 39.35,46.01 40.40,44.25 40.75,41.80"/>
    </edge>
    <edge id=":gneJ0_9" function="internal">
        <lane id=":gneJ0_9_0" index="0" speed="13.89" length="20.84" shape="35.12,47.42 55.97,47.40"/>
        <lane id=":gneJ0_9_1" index="1" speed="13.89" length="20.84" shape="35.13,50.62 55.96,50.60"/>
    </edge>
    <edge id=":gneJ0_11" function="internal">
        <lane id=":gneJ0_11_0" index="0" speed="9.25" length="19.39" shape="35.13,50.62 40.40,51.36 44.15,53.60 46.40,57.36 47.14,62.63"/>
    </edge>
    <edge id=":gneJ0_12" function="internal">
        <lane id=":gneJ0_12_0" index="0" speed="6.50" length="9.03" shape="40.74,62.61 40.40,60.16 39.35,58.41 37.60,57.36 35.15,57.02"/>
    </edge>
    <edge id=":gneJ0_13" function="internal">
        <lane id=":gneJ0_13_0" index="0" speed="13.89" length="20.81" shape="40.74,62.61 40.75,41.80"/>
        <lane id=":gneJ0_13_1" index="1" speed="13.89" length="20.81" shape="43.94,62.62 43.95,41.80"/>
    </edge>
    <edge id=":gneJ0_15" function="internal">
        <lane id=":gneJ0_15_0" index="0" speed="9.27" length="19.38" shape="43.94,62.62 44.70,57.36 46.96,53.60 50.72,51.35 55.96,50.60"/>
    </edge>

    <edge id="gneE0" from="gneJ0" to="gneJ1" priority="-1">
        <lane id="gneE0_0" index="0" speed="13.89" length="216.28" shape="50.34,62.63 49.83,278.91"/>
        <lane id="gneE0_1" index="1" speed="13.89" length="216.28" shape="47.14,62.63 46.63,278.90"/>
    </edge>
    <edge id="gneE1" from="gneJ1" to="gneJ0" priority="-1">
        <lane id="gneE1_0" index="0" speed="13.89" length="216.28" shape="40.23,278.89 40.74,62.61"/>
        <lane id="gneE1_1" index="1" speed="13.89" length="216.28" shape="43.43,278.90 43.94,62.62"/>
    </edge>
    <edge id="gneE2" from="gneJ0" to="gneJ2" priority="-1" length="211.10">
        <lane id="gneE2_0" index="0" speed="13.89" length="211.10" shape="55.97,47.40 267.09,47.73"/>
        <lane id="gneE2_1" index="1" speed="13.89" length="211.10" shape="55.96,50.60 267.08,50.93"/>
    </edge>
    <edge id="gneE3" from="gneJ2" to="gneJ0" priority="-1">
        <lane id="gneE3_0" index="0" speed="13.89" length="211.12" shape="267.07,57.33 55.95,57.00"/>
        <lane id="gneE3_1" index="1" speed="13.89" length="211.12" shape="267.08,54.13 55.96,53.80"/>
    </edge>
    <edge id="gneE4" from="gneJ0" to="gneJ3" priority="-1">
        <lane id="gneE4_0" index="0" speed="13.89" length="230.32" shape="35.15,57.02 -195.18,57.66"/>
        <lane id="gneE4_1" index="1" speed="13.89" length="230.32" shape="35.14,53.82 -195.19,54.46"/>
    </edge>
    <edge id="gneE5" from="gneJ3" to="gneJ0" priority="-1">
        <lane id="gneE5_0" index="0" speed="13.89" length="230.32" shape="-195.20,48.06 35.12,47.42"/>
        <lane id="gneE5_1" index="1" speed="13.89" length="230.32" shape="-195.19,51.26 35.13,50.62"/>
    </edge>
    <edge id="gneE6" from="gneJ0" to="gneJ4" priority="-1">
        <lane id="gneE6_0" index="0" speed="13.89" length="221.28" shape="40.75,41.80 40.35,-179.47"/>
        <lane id="gneE6_1" index="1" speed="13.89" length="221.28" shape="43.95,41.80 43.55,-179.48"/>
    </edge>
    <edge id="gneE7" from="gneJ4" to="gneJ0" priority="-1">
        <lane id="gneE7_0" index="0" speed="13.89" length="221.28" shape="49.95,-179.49 50.35,41.79"/>
        <lane id="gneE7_1" index="1" speed="13.89" length="221.28" shape="46.75,-179.48 47.15,41.79"/>
    </edge>

    <tlLogic id="gneJ0" type="static" programID="0" offset="0">
        <phase duration="100" state="rrrrGGGGrrrrrrrr"/>
        <phase duration="100" state="rrrryyyyrrrrrrrr"/>
        <phase duration="100" state="rrrrrrrrrrrrrrrr"/>
        <phase duration="100" state="GGGGrrrrrrrrrrrr"/>
        <phase duration="100" state="yyyyrrrrrrrrrrrr"/>
        <phase duration="100" state="rrrrrrrrrrrrrrrr"/>
        <phase duration="100" state="rrrrrrrrrrrrGGGG"/>
        <phase duration="100" state="rrrrrrrrrrrryyyy"/>
        <phase duration="100" state="rrrrrrrrrrrrrrrr"/>
        <phase duration="100" state="rrrrrrrrGGGGrrrr"/>
        <phase duration="100" state="rrrrrrrryyyyrrrr"/>
        <phase duration="100" state="rrrrrrrrrrrrrrrr"/>
    </tlLogic>

    <junction id="gneJ0" type="traffic_light" x="45.57" y="52.19" incLanes="gneE3_0 gneE3_1 gneE7_0 gneE7_1 gneE5_0 gneE5_1 gneE1_0 gneE1_1" intLanes=":gneJ0_0_0 :gneJ0_1_0 :gneJ0_1_1 :gneJ0_3_0 :gneJ0_4_0 :gneJ0_5_0 :gneJ0_5_1 :gneJ0_7_0 :gneJ0_8_0 :gneJ0_9_0 :gneJ0_9_1 :gneJ0_11_0 :gneJ0_12_0 :gneJ0_13_0 :gneJ0_13_1 :gneJ0_15_0" shape="55.95,58.60 55.97,45.80 53.74,45.36 52.96,44.80 52.40,44.01 52.06,43.01 51.95,41.78 39.15,41.81 38.70,44.03 38.14,44.81 37.36,45.37 36.35,45.70 35.12,45.82 35.15,58.62 37.37,59.06 38.15,59.61 38.70,60.39 39.03,61.38 39.14,62.61 51.94,62.64 52.39,60.39 52.95,59.61 53.73,59.05 54.73,58.71">
        <request index="0"  response="0000000001100000" foes="0000000001100000" cont="0"/>
        <request index="1"  response="1111000011100000" foes="1111100011100000" cont="0"/>
        <request index="2"  response="1111000011100000" foes="1111100011100000" cont="0"/>
        <request index="3"  response="1110011011100000" foes="1110011011100000" cont="0"/>
        <request index="4"  response="0000000000000000" foes="0000011000000000" cont="0"/>
        <request index="5"  response="0000000000000000" foes="1000111000001111" cont="0"/>
        <request index="6"  response="0000000000000000" foes="1000111000001111" cont="0"/>
        <request index="7"  response="0110000000000000" foes="0110111000001110" cont="0"/>
        <request index="8"  response="0110000000000000" foes="0110000000000000" cont="0"/>
        <request index="9"  response="1110000011110000" foes="1110000011111000" cont="0"/>
        <request index="10" response="1110000011110000" foes="1110000011111000" cont="0"/>
        <request index="11" response="1110000011100110" foes="1110000011100110" cont="0"/>
        <request index="12" response="0000000000000000" foes="0000000000000110" cont="0"/>
        <request index="13" response="0000000000000000" foes="0000111110001110" cont="0"/>
        <request index="14" response="0000000000000000" foes="0000111110001110" cont="0"/>
        <request index="15" response="0000000001100000" foes="0000111001101110" cont="0"/>
    </junction>
    <junction id="gneJ1" type="dead_end" x="45.03" y="278.90" incLanes="gneE0_0 gneE0_1" intLanes="" shape="45.03,278.90 51.43,278.92 45.03,278.90"/>
    <junction id="gneJ2" type="dead_end" x="267.08" y="52.53" incLanes="gneE2_0 gneE2_1" intLanes="" shape="267.08,52.53 267.09,46.13 267.08,52.53"/>
    <junction id="gneJ3" type="dead_end" x="-195.19" y="52.86" incLanes="gneE4_0 gneE4_1" intLanes="" shape="-195.19,52.86 -195.17,59.26 -195.19,52.86"/>
    <junction id="gneJ4" type="dead_end" x="45.15" y="-179.48" incLanes="gneE6_0 gneE6_1" intLanes="" shape="45.15,-179.48 38.75,-179.47 45.15,-179.48"/>

    <connection from="gneE1" to="gneE4" fromLane="0" toLane="0" via=":gneJ0_12_0" tl="gneJ0" linkIndex="12" dir="r" state="O"/>
    <connection from="gneE1" to="gneE6" fromLane="0" toLane="0" via=":gneJ0_13_0" tl="gneJ0" linkIndex="13" dir="s" state="O"/>
    <connection from="gneE1" to="gneE6" fromLane="1" toLane="1" via=":gneJ0_13_1" tl="gneJ0" linkIndex="14" dir="s" state="O"/>
    <connection from="gneE1" to="gneE2" fromLane="1" toLane="1" via=":gneJ0_15_0" tl="gneJ0" linkIndex="15" dir="l" state="o"/>
    <connection from="gneE3" to="gneE0" fromLane="0" toLane="0" via=":gneJ0_0_0" tl="gneJ0" linkIndex="0" dir="r" state="o"/>
    <connection from="gneE3" to="gneE4" fromLane="0" toLane="0" via=":gneJ0_1_0" tl="gneJ0" linkIndex="1" dir="s" state="o"/>
    <connection from="gneE3" to="gneE4" fromLane="1" toLane="1" via=":gneJ0_1_1" tl="gneJ0" linkIndex="2" dir="s" state="o"/>
    <connection from="gneE3" to="gneE6" fromLane="1" toLane="1" via=":gneJ0_3_0" tl="gneJ0" linkIndex="3" dir="l" state="o"/>
    <connection from="gneE5" to="gneE6" fromLane="0" toLane="0" via=":gneJ0_8_0" tl="gneJ0" linkIndex="8" dir="r" state="o"/>
    <connection from="gneE5" to="gneE2" fromLane="0" toLane="0" via=":gneJ0_9_0" tl="gneJ0" linkIndex="9" dir="s" state="o"/>
    <connection from="gneE5" to="gneE2" fromLane="1" toLane="1" via=":gneJ0_9_1" tl="gneJ0" linkIndex="10" dir="s" state="o"/>
    <connection from="gneE5" to="gneE0" fromLane="1" toLane="1" via=":gneJ0_11_0" tl="gneJ0" linkIndex="11" dir="l" state="o"/>
    <connection from="gneE7" to="gneE2" fromLane="0" toLane="0" via=":gneJ0_4_0" tl="gneJ0" linkIndex="4" dir="r" state="O"/>
    <connection from="gneE7" to="gneE0" fromLane="0" toLane="0" via=":gneJ0_5_0" tl="gneJ0" linkIndex="5" dir="s" state="O"/>
    <connection from="gneE7" to="gneE0" fromLane="1" toLane="1" via=":gneJ0_5_1" tl="gneJ0" linkIndex="6" dir="s" state="O"/>
    <connection from="gneE7" to="gneE4" fromLane="1" toLane="1" via=":gneJ0_7_0" tl="gneJ0" linkIndex="7" dir="l" state="o"/>

    <connection from=":gneJ0_0" to="gneE0" fromLane="0" toLane="0" dir="r" state="M"/>
    <connection from=":gneJ0_1" to="gneE4" fromLane="0" toLane="0" dir="s" state="M"/>
    <connection from=":gneJ0_1" to="gneE4" fromLane="1" toLane="1" dir="s" state="M"/>
    <connection from=":gneJ0_3" to="gneE6" fromLane="0" toLane="1" dir="l" state="M"/>
    <connection from=":gneJ0_4" to="gneE2" fromLane="0" toLane="0" dir="r" state="M"/>
    <connection from=":gneJ0_5" to="gneE0" fromLane="0" toLane="0" dir="s" state="M"/>
    <connection from=":gneJ0_5" to="gneE0" fromLane="1" toLane="1" dir="s" state="M"/>
    <connection from=":gneJ0_7" to="gneE4" fromLane="0" toLane="1" dir="l" state="M"/>
    <connection from=":gneJ0_8" to="gneE6" fromLane="0" toLane="0" dir="r" state="M"/>
    <connection from=":gneJ0_9" to="gneE2" fromLane="0" toLane="0" dir="s" state="M"/>
    <connection from=":gneJ0_9" to="gneE2" fromLane="1" toLane="1" dir="s" state="M"/>
    <connection from=":gneJ0_11" to="gneE0" fromLane="0" toLane="1" dir="l" state="M"/>
    <connection from=":gneJ0_12" to="gneE4" fromLane="0" toLane="0" dir="r" state="M"/>
    <connection from=":gneJ0_13" to="gneE6" fromLane="0" toLane="0" dir="s" state="M"/>
    <connection from=":gneJ0_13" to="gneE6" fromLane="1" toLane="1" dir="s" state="M"/>
    <connection from=":gneJ0_15" to="gneE2" fromLane="0" toLane="1" dir="l" state="M"/>

</net>
